distros/r/rpmtools/gendistrib:(our $VERSION) = q(Id: gendistrib 20724 2006-11-30 13:13:27Z rafael ) =~ /(\d+)/;
distros/E/Envy/envy.IN:$VERSION = '#VERSION#';
distros/E/Envy/DB.IN:$VERSION = '#VERSION#';
distros/E/ExtUtils-configPL/configPL.pm:our ($VERSION) = '$Revision: 1.1 $' =~ /\$Revision:\s+([^\s]+)/;
distros/E/Exception-NoException/#d.patch#:+our $VERSION = '0.07';
distros/B/Bundle-WWW-Scraper-Job/test.pl:$VERSION = sprintf("%d.%02d", q$Revision: 1.07 $ =~ /(\d+)\.(\d+)/);
distros/E/ExtUtils-DynaGlue/DynaGlue.pm:$VERSION = (qw$Revision: 1.10 $)[1] . "a";
distros/B/Benchmark-Harness-Graph/Graph.pm:use vars qw($VERSION); $VERSION = sprintf("%d.%02d", q$Revision: 1.2 $ =~ /(\d+)\.(\d+)/);
distros/B/Benchmark-Harness-Graph/Makefile.PL:use vars qw($VERSION); $VERSION = sprintf("%d.%02d", q$Revision: 1.1 $ =~ /(\d+)\.(\d+)/);
distros/B/Benchmark-Harness/Makefile.PL:use vars qw($VERSION); $VERSION = sprintf("%d.%02d", q$Revision: 1.7 $ =~ /(\d+)\.(\d+)/);
distros/B/Base64-Serializer/Base64.pm:($VERSION) = '$Revision: 0.1 $' =~ m/Revision:\s*(\S+)/;
distros/W/WebService-Ustream-API/Makefile.PL:our $VERSION = eval { require version; version::qv('0.03') };
distros/L/Lingua-EN-Numericalize/Numericalize.pm:our $VERSION = substr q$Revision: 1.52 $, 10;
distros/L/Linux-TunTap/Makefile.PL:$VERSION = do { my @r=(q$Revision: 1.1 $=~/\d+/g); sprintf "%d."."%03d"x$#r,@r };
distros/L/LWP-Protocol-https-SocksChain/SocksChain.pm:($VERSION='$Revision: 1.8 $')=~s/^\S+\s+(\S+)\s+.*/$1/;
distros/W/Wx-DialUpManager/DialUpManager.pm:$VERSION = '0.03',
distros/P/PerlMagick/Magick.pm.in:$VERSION = '@PACKAGE_PERL_VERSION@';
distros/B/Bundle-WWW-Scraper-Auction/test.pl:$VERSION = sprintf("%d.%02d", q$Revision: 1.07 $ =~ /(\d+)\.(\d+)/);
distros/L/LWP-Protocol-http-SocksChain/SocksChain.pm:($VERSION='$Revision: 1.7 $')=~s/^\S+\s+(\S+)\s+.*/$1/;
distros/L/Log-ErrLogger/ErrLogger.pm:($VERSION)   = ( qw$Revision: 1.6 $ )[1];
distros/W/WWW-Search-RPMPbone/RPMPbone.pm:$VERSION = ('$Revision: 1.0 $ ' =~ /(\d+\.\d+)/)[0];
distros/L/Log-Simple/Simple.pm:( $VERSION ) = '$Revision: 1.8 $ ' =~ /\$Revision:\s+([^\s]+)/;
distros/B/Bundle-WWW-Scraper-News/test.pl:$VERSION = sprintf("%d.%02d", q$Revision: 1.07 $ =~ /(\d+)\.(\d+)/);
distros/L/LWP-Protocol-http-SocksChain10/SocksChain10.pm:($VERSION='$Revision: 1.7 $')=~s/^\S+\s+(\S+)\s+.*/$1/;
distros/L/LoadWorm/readme:( $VERSION ) = sprintf("%d.%02d", q$Revision: 1.2 $ =~ /(\d+)\.(\d+)/)
distros/L/LoadWorm/LoadWorm.pm:$VERSION = do { my @r=(q $Name:  $ =~ /\d+/g ); sprintf "%d."."%02d"x$#r,@r }; 
distros/B/Befunge-Interpreter/Interpreter.pm:$VERSION = "0.01c";
distros/L/LWP-Protocol-https-SocksChain10/SocksChain10.pm:($VERSION='$Revision: 1.7 $')=~s/^\S+\s+(\S+)\s+.*/$1/;
distros/P/POE-Component-Player-Slideshow/Slideshow.pm:$VERSION		= substr q$Revision: 1.4 $, 10;
distros/W/WWW-Search-Nomade/Nomade.pm:$VERSION = ('$Revision: 1.3 $ ' =~ /(\d+\.\d+)/)[0];
distros/W/WebService-YouTube/Makefile.PL:our $VERSION = eval { require version; version::qv('1.0.3') };
distros/P/POE-Component-CD-Detect/Detect.pm:$VERSION = substr q$Revision: 1.1 $, 10;
distros/P/PGP-Mail/Mail.pm:$VERSION=('$Revision: 1.7 $'=~/(\d+\.\d+)/)[0];
distros/P/POE-Session-MultiDispatch/MultiDispatch.pm:$VERSION = (qw$Revision: 1.3 $)[1];
distros/W/WWW-Search-RpmFind/RpmFind.pm:$VERSION = ('$Revision: 1.2 $ ' =~ /(\d+\.\d+)/)[0];
distros/g/grepmail/grepmail:$VERSION = sprintf "%d.%02d%02d", q/5.31.11/ =~ /(\d+)/g;
distros/g/grepmail/grepmail.old:$VERSION = sprintf "%d.%02d%02d", q/5.31.5/ =~ /(\d+)/g;
distros/W/Wx-Metafile/Metafile.pm:$VERSION = '0.02',
distros/P/POE-Component-Enc-Ogg/Ogg.pm:our $VERSION = sprintf("%d.%02d", q$Revision: 1.5 $ =~ /(\d+)\.(\d+)/);
distros/P/POE-Component-Player-Mpg123/Mpg123.pm:$VERSION = substr q$Revision: 1.2 $, 10;
distros/P/Palm-Ztxt/Ztxt.pm:our $VERSION = sprintf "%s.%s%s", q$Name: Rel-0_91 $ =~ /^Name: Rel-(\d+)_(\d+)(_\d+|)\s*$/, 999,"00",join "", (gmtime)[5] +1900, map {sprintf "%02d", $_} (gmtime)[4]+1;
distros/W/Win32-CommandLine/Build.PL:use version qw(); our $VERSION; { my $defaultVERSION = '0.4'; my $generate_alphas = 0; $VERSION = ( $defaultVERSION, qw( $Version: 0.4.1.340 $ ))[-2]; if ($VERSION =~ /^\d+([\._]\d+)?$/msx) {$VERSION .= '.0'; if (!defined($1)) {$VERSION .= '.0'}}; if ($generate_alphas) { $VERSION =~ /(\d+)[\._](\d+)[\._](\d+)(?:[\._])?(.*)/msx; $VERSION = $1.'.'.$2.((!$4&&($2%2))?'_':'.').$3.($4?((($2%2)?'_':'.').$4):q{}); $VERSION = version->new( $VERSION ); }; } ## no critic ( ProhibitCallsToUnexportedSubs ProhibitCaptureWithoutTest ProhibitNoisyQuotes ProhibitMixedCaseVars ProhibitMagicNumbers Capitalization RequireConstantVersion ProhibitEscapedMEtaCharacters )
distros/P/Persistence-Database-SQL/SQL.pm:( $VERSION ) = '$Revision: 1.9 $' =~ /\s+([\d\.]+)/;
distros/D/DSlib/Makefile.PL:our ($VERSION) = '$Revision: 1.2 $' =~ /(\d+\.\d+)/;
distros/C/ClearCase-ClearPrompt/ClearPrompt.pm:$VERSION = $VERSION = '1.31';
distros/C/Config-Cfe/Cfe.pm:($VERSION) = '$Revision: 1.49 $ ' =~ /\$Revision:\s+([^\s]+)/;
distros/W/WWW-Search-Go/Go.pm:$VERSION = ('$Revision: 1.3 $ ' =~ /(\d+\.\d+)/)[0];
distros/P/PayflowPro/PayflowPro.pm:$VERSION = sprintf "%d", q$Revision: 4712 $ =~ /(\d+)/;
distros/P/PXP/Makefile.PL:$VERSION = $tla_version . '.' . $tla_patchlevel;
distros/D/Document/Version:$VERSION = '0.03-3';
distros/P/POE-Component-Enc-Flac/Flac.pm:our $VERSION = sprintf("%d.%02d", q$Revision: 1.1 $ =~ /(\d+)\.(\d+)/);
distros/P/PerlVision/PV.pm:( $VERSION ) = '$Revision: 1.5 $' =~ /\s+([\d\.]+)/;
distros/P/Persistence-Object-Postgres/Postgres.pm:( $VERSION ) = '$Revision: 1.24 $' =~ /\s+([\d\.]+)/;
distros/D/DBD-mysql-SimpleMySQL/SimpleMySQL.pm:$VERSION = q|$Revision: 1.8 $|;
distros/P/POE-Component-DBIAgent/DBIAgent.pm:$VERSION = sprintf("%d.%02d", q$Revision: 0.26 $ =~ /(\d+)\.(\d+)/);
distros/D/DMAMisc/Version:$VERSION = '1.01-3';
distros/C/CursesApplication/Application.pm:($VERSION) = (q$Revision: 0.2 $ =~ /(\d+(?:\.(\d+))+)/);
distros/C/CursesApplication/test.pl:($VERSION) = (q$Revision: 0.1 $ =~ /(\d+(?:\.(\d+))+)/) || '0.1';
distros/P/Parallel-Pvm/Pvm.pm:$VERSION = '1.4.0-pre1';
distros/D/DBD-QBase/QBase.pm:    $VERSION = substr(q$Revision: 0.03 $, 10);
distros/P/PurpleWiki/wiki.pl:$VERSION = sprintf("%d", q$Id: wiki.pl 474 2004-08-11 08:28:49Z cdent $ =~ /\s(\d+)\s/);
distros/M/Mac-Finder-DSStore/BuddyAllocator.pm:our($VERSION) = '1.00';
distros/M/Mac-Finder-DSStore/DSStore.pm:our($VERSION) = '1.00';
distros/M/Math-FixedPrecision/FixedPrecision.pm:$VERSION = (qw$Revision: 2.1 $)[1]/10;
distros/C/Class-DBI-TempEssential/TempEssential.pm:our $VERSION = do { my @r = (q$Revision: 0.4 $ =~ /\d+/g); sprintf " %d." . "%02d" x $#r, @r };
distros/C/Crypt-SecurID/securid.i:$VERSION = sprintf("%d.%02d", (q$Name: SecurID_Release_0_04 $ =~ /\d+/g));
distros/C/Crypt-SecurID/securid.pm:$VERSION = sprintf("%d.%02d", (q$Name: SecurID_Release_0_04 $ =~ /\d+/g));
distros/C/Crypt-SecurID/SecurID.pm:$VERSION = sprintf("%d.%02d", (q$Name: SecurID_Release_0_04 $ =~ /\d+/g));
distros/P/POE-Component-Child/Child.pm:$VERSION = substr q$Revision: 1.39 $, 10;
distros/C/Crypt-GPG/GPG.pm:( $VERSION ) = '$Revision: 1.64 $' =~ /\s+([\d\.]+)/;
distros/D/DBM-DBass/DBass.pm:$VERSION = $VERSION = '0.54';
distros/D/DBD-Solid/Solid.pm:   $VERSION = '0.20a';
distros/C/Crypt-PGP5/PGP5.pm:( $VERSION ) = '$Revision: 1.38 $' =~ /\s+([\d\.]+)/;
distros/C/Chess-Mbox/Mbox.pm:our $VERSION = sprintf '%s', 'q$Revision: 1.3 $' =~ /\S+\s+(\S+)\s+/ ;
distros/C/CatalystX-Plugin-Engine-FastCGI-Lighttpd/Makefile.PL:our $VERSION = eval { require version; version::qv('0.1.0') };
distros/P/POE-Component-CD-Rip/Rip.pm:$VERSION = substr q$Revision: 1.2 $, 10;
distros/P/POE-Component-Enc-Mp3/Mp3.pm:$VERSION = substr q$Revision: 1.2 $, 10;
distros/P/Perl-Critic/TODO.pod:'package Foo 1.23;' is equivalent to 'package Foo; our $VERSION = 1.23;' per
distros/P/Perl-Repository-APC/Makefile.PL:$VERSION = sprintf "%.3f", 1 + substr(q$Rev: 314 $,4)/1000;
distros/M/MIME-Lite-HTML/HTML.pm:$VERSION = ('$Revision: 1.24 $ ' =~ /(\d+\.\d+)/)[0];
distros/P/Postgres/Postgres.pm:$VERSION = 0.0 + substr(q$Revision: 1.4 $, 10);
distros/D/DBIx-OracleSequence/OracleSequence.pm:$VERSION = sprintf("%d.%02d", q$Revision: 0.4 $ =~ /(\d+)\.(\d+)/);
distros/P/Parse-RecDescent-Consumer/Consumer.pm:our $VERSION = sprintf '%2d.%02d', q$Revision: 1.3 $ =~ /(\d+)\.(\d+)/;
distros/C/CursesWidgets/Widgets.pm:($VERSION) = (q$Revision: 1.997 $ =~ /(\d+(?:\.(\d+))+)/);
distros/C/Crypt-NULL/NULL.pm:($VERSION) = q$Revision: 1.02 $ =~ /(\d+\.\d+)/;
distros/D/DBIx-Broker/Broker.pm:	$VERSION     = (split ' ', q!$Revision: 1.14 $!)[1];
distros/D/Devel-Fail-Make/Makefile.PL:$VERSION = do { my @r = (q$Revision: 1.16 $ =~ /\d+/g); sprintf "%d."."%03d" x $#r, @r };
distros/D/DBD-Ingres/Ingperl.pm:$VERSION = 3.0+substr(q$Revision: #4 $, 11)/100;
distros/C/CGI-Validate/Validate.pm:$VERSION = do { my @r = (q$Revision: 2.0 $ =~ /\d+/g); sprintf '%d.%03d'.'%02d' x ($#r-1), @r};
distros/s/svg-svg2zinc/svg2zinc.pl:($VERSION) = sprintf("%d.%02d", q$Revision: 1.22 $ =~ /(\d+)\.(\d+)/);
distros/s/svg-svg2zinc/testGeneratedPerlClasses.pl:($VERSION) = sprintf("%d.%02d", q$Revision: 1.3 $ =~ /(\d+)\.(\d+)/);
distros/M/Mail-vpopmail/vpopmail.pm:$Mail::vpopmail::VERSION = "0.60b3";
distros/D/DBI/DBI.pm:our $XS_VERSION = our $VERSION = "1.643"; # ==> ALSO update the version in the pod text below!
distros/X/X11-SendEvent/SendEvent.pm:$VERSION = substr q$Revision: 1.3 $, 10;
distros/X/XML-Document-Transport/Transport.pm:'$Revision: 1.1 $ ' =~ /.*:\s(.*)\s\$/ && ($VERSION = $1);
distros/X/XML-Generator-CGI/CGI.pm:  $VERSION     = sprintf( "%d.%02d", q( $Revision: 0.01 $ ) =~ /\s(\d+)\.(\d+)/ );
distros/X/X11-Keyboard/Keyboard.pm:$VERSION = substr q$Revision: 1.4 $, 10;
distros/M/Module-Check_Args/Check_Args.pm:($VERSION) = q$Revision: 1.1 $ =~ /Revision:\s+([^\s]+)/;
distros/X/XAO-Base/BaseConfig.PL:$VERSION='<%VERSION%>';
distros/X/XML-Document-RTML/RTML.pm:'$Revision: 1.16 $ ' =~ /.*:\s(.*)\s\$/ && ($VERSION = $1);
distros/D/Devel-Diagram/test.pl:$VERSION = sprintf("%d.%02d", q$Revision: 1.0 $ =~ /(\d+)\.(\d+)/);
distros/D/DBIx-Password/Password.pm:($DBIx::Password::VERSION) = ' $Revision: 1.9 $ ' =~ /\$Revision:\s+([^\s]+)/;
distros/D/DBIx-Password/Password.pm-orig:($DBIx::Password::VERSION) = ' $Revision: 1.9 $ ' =~ /\$Revision:\s+([^\s]+)/;
distros/C/ControlX10-CM17/CM17.pm:($VERSION) = q$Revision: 0.07 $ =~ /: (\S+)/; # Note: cvs version reset when we moved to sourceforge
distros/C/Callback/Callback.pm:$VERSION = $VERSION = 1.07;
distros/C/CursesForms/test.pl:($VERSION) = (q$Revision: 0.4 $ =~ /(\d+(?:\.(\d+))+)/) || '0.1';
distros/C/CursesForms/Forms.pm:$VERSION = (q$Revision: 1.997 $ =~ /(\d+(?:\.(\d+))+)/)[0] || '0.1';
distros/M/Module-Dependency/pmd_indexer.plx:$VERSION = (q$Revision: 6643 $ =~ /(\d+)/g)[0];
distros/M/Module-Dependency/pmd_grapher.plx:$VERSION = (q$Revision: 6643 $ =~ /(\d+)/g)[0];
distros/M/Module-Dependency/pmd_dump.pl:our $VERSION = (q$Revision: 6570 $ =~ /(\d+)/g)[0];
distros/V/VCS-Rcs-Parser/YappRcsParser.yp:    our ($VERSION) = (q$Revision: 1.11 $ =~ /([\d\.]+)/);
distros/V/Visio/Visio.pm:$VERSION = sprintf "%d.%03d", q$Revision: 1.10 $ =~ /: (\d+)\.(\d+)/;
distros/V/VoiceXML-Server/Server.pm:($VoiceXML::Server::VERSION) = '$Revision: 1.6 $ ' =~ /\$Revision:\s+([^\s]+)/;
distros/M/Message-Style/Makefile.PL:$VERSION = do { my @r=(q$Revision: 1.2 $=~/\d+/g); sprintf "%d."."%03d"x$#r,@r };
distros/C/Class-IntrospectionMethods/Catalog.pm:$VERSION = sprintf "%d.%03d", q$Revision: 1.4 $ =~ /(\d+)\.(\d+)/;
distros/C/Class-IntrospectionMethods/IntrospectionMethods.pm:$VERSION = sprintf "%d.%03d", q$Revision: 1.5 $ =~ /(\d+)\.(\d+)/;
distros/C/Class-IntrospectionMethods/Parent.pm:$VERSION = sprintf "%d.%03d", q$Revision: 1.3 $ =~ /(\d+)\.(\d+)/;
distros/C/ControlX10-CM11/CM11.pm:($VERSION) = q$Revision: 2.09 $ =~ /: (\S+)/; # Note: cvs version reset when we moved to sourceforge
distros/C/Crypt-GOST/GOST.pm:($VERSION) = q$Revision: 1.00 $ =~ /([\d.]+)/;
distros/D/DBomb/DBomb.pm:our $VERSION = '$Revision: 1.26 $';
distros/D/DBass/DBass.pm:$VERSION = $VERSION = '0.53';
distros/C/Carp-Ensure/Ensure.pm:$VERSION = '$Name: Carp_Ensure_1_23 $' =~ /_(\d+)_(\d+)\b/ && sprintf("%d.%02d", $1 - 1, $2);
distros/C/Cisco-Hash/Hash.pm:our $VERSION = sprintf "%d.%02d", q$Revision: 0.02 $ =~ m/ (\d+) \. (\d+) /xg;
distros/C/CGI-ToXML/ToXML.pm:  $VERSION     = sprintf( "%d.%02d", q( $Revision: 0.02 $ ) =~ /\s(\d+)\.(\d+)/ );
distros/D/DBIx-Recordset-Playground/Playground.tt:our $VERSION = sprintf '%s', q$Revision: 1.9 $ =~ /Revision:\s+(\S+)\s+/ ;
distros/D/DBIx-Recordset-Playground/Playground.pm:our $VERSION = sprintf '%s', q$Revision: 1.9 $ =~ /Revision:\s+(\S+)\s+/ ;
distros/C/CGI-Session-Auth/Auth.pm:our $VERSION = do { q$Revision: 32 $ =~ /Revision: (\d+)/; sprintf "1.%03d", $1; };
distros/m/makepp/makeppclean:  our $VERSION = '@VERSION@';
distros/D/Digest-Elf/Elf.pm:$VERSION = sprintf( "%s", q{$Id: Elf.pm,v 1.42 2016/03/05 04:18:47 steve Exp $} =~ /(\d+\.\d+)/ );
distros/C/CGI-State/State.pm:$VERSION = (qw$Revision: 0.02 $)[-1];
distros/C/Crypt-TEA/TEA.pm:($VERSION) = q$Revision: 1.26 $ =~ /([\d.]+)/;
distros/C/CGIS/CGIS.pm:($CGIS::VERSION) = '$Revision: 1.6 $' =~ m/Revision:\s*(\S+)/;
distros/T/Tk-Workspace/Shell.pm:$VERSION=$1;
distros/T/Tk-Workspace/SearchDialog.pm:$VERSION=$1;
distros/C/Config-ApacheExtended/VERSION:	$VERSION = sprintf("%d.%02d", q$Revision: 1.16 $ =~ /(\d+)/g);
distros/M/MPE-IMAGE/IMAGE.pm:our $VERSION = '0.98a';
distros/T/Tk-IDElayout/IDEdragShadowToplevel.pm:our ($VERSION) = ('0.35');
distros/T/Tk-IDElayout/IDEpanedwindow.pm:our ($VERSION) = ('0.35');
distros/T/Tk-IDElayout/IDElayout.pm:our ($VERSION) = ('0.35');
distros/T/Tk-IDElayout/CaptureRelease.pm:our ($VERSION) = ('0.35');
distros/T/Tk-IDElayout/IDEtabFrame.pm:our ($VERSION) = ('0.35');
distros/T/Tk-IDElayout/IDElayoutDropSite.pm:our ($VERSION) = ('0.35');
distros/T/Tk-IDElayout/IDEdragDrop.pm:our ($VERSION) = ('0.35');
distros/T/Tk-IDElayout/IDEdragShadow.pm:our ($VERSION) = ('0.35');
distros/T/Template-Provider-Unicode-Japanese/Makefile.PL:our $VERSION = eval { require version; version::qv('1.2.1') };
distros/T/Tk-HTML/Makefile.PL:$VERSION = sprintf '3.%03d', q$Revision: #3$ =~ /\D(\d+)\s*$/;
distros/M/Mail-RBL/RBL.pm:our $VERSION = do { sprintf " %d.%02d", (q$Revision: 1.10 $ =~ /\d+/g) };
distros/C/Color-Rgb/Rgb.pm:($VERSION) = '$Revision: 1.4 $' =~ m/Revision:\s*(\S+)/;
distros/C/Curses-Simp/Simp.pm:our $VERSION     = '1.4.A8UG1gG'; # major . minor . PipTimeStamp
distros/T/Tk-Task/Task.pm:($VERSION) = q$Revision: 1.1 $ =~ /^Revision:\s+(\S+)/ or $VERSION = "0.0";
distros/T/TDB_File/TDB_File.pm:our $VERSION = '0.96a';
distros/j/junoscript-perl/Makefile.PL:$VERSION = ( exists $ENV{'RELEASE'} ? $ENV{'RELEASE'} : '6.4I0' );
distros/D/DB-Ent/Ent.pm:our $VERSION = substr q$Revision: 1.63 $, 10;
distros/T/Tie-DB_FileLock/README:	$VERSION = 'X.XX';
distros/D/Debarnacle/debarnacle:our $VERSION = '$Date: 2002/05/15 19:41:18 $ '; $VERSION =~ s|^\$Date:\s*([0-9]{4})/([0-9]{2})/([0-9]{2})\s.*|\1.\2.\3| ;
distros/S/SNMP-Server/Makefile.PL:$VERSION = do { my @r=(q$Revision: 35 $=~/\d+/g); sprintf "%d."."%03d"x$#r,@r };
distros/T/Tie-TwoLevelHash/TwoLevelHash.pm:($VERSION = substr(q$Revision: 1.2 $, 10)) =~ s/\s+$//;
distros/S/Slash-Gallery/gallery.pl:($VERSION) = ' $Revision: 1.5 $ ' =~ /\$Revision:\s+([^\s]+)/;
distros/S/Sed/Sed.pm:$VERSION = sprintf "%d.%02d", q$Revision: 1.11 $ =~ /(\d+)\.(\d+)/;
distros/S/Scraper/test.pl:$VERSION = sprintf("%d.%02d", q$Revision: 1.07 $ =~ /(\d+)\.(\d+)/);
distros/v/vptk_w/vptk_w.pl:$VERSION = q$Revision: 2.42 $;
distros/T/Text-MetaText/MetaText.pm:$VERSION   = sprintf("%d.%02d", q$Revision: 0.22 $ =~ /(\d+)\.(\d+)/);
distros/S/String-Canonical/Canonical.pm:$VERSION    = substr q$Revision: 1.2 $, 10;
distros/S/SWF/SWF.pm:$SWF::VERSION = '0.4.0-beta6_02';
distros/T/Tk-ACH/ptktrl:$VERSION = substr q$Revision: 1.9 $, 10;
distros/O/OpenOffice-OOBuilder/OOBuilder.pm:$VERSION=sprintf("%d.%02d", q$Revision: 0.9 $ =~ /(\d+)\.(\d+)/);
distros/O/OpenCA-REQ/REQ.pm:($OpenCA::REQ::VERSION = '$Revision: 1.52 $' )=~ s/(?:^.*: (\d+))|(?:\s+\$$)/defined $1?"0\.9":""/eg;
distros/O/OpenCA-OpenSSL/OpenSSL.pm:($OpenCA::OpenSSL::VERSION = '$Revision: 1.29 $' )=~ s/(?:^.*: (\d+))|(?:\s+\$$)/defined $1?"2\.0":""/eg;
distros/O/OpenCA-PKCS7/PKCS7.pm:($OpenCA::PKCS7::VERSION = '$Revision: 1.13 $' )=~ s/(?:^.*: (\d+))|(?:\s+\$$)/defined $1?"0\.9":""/eg;
distros/O/OpenCA-Crypto/Crypto.pm:($OpenCA::Crypto::VERSION = '$Revision: 1.6 $' )=~ s/(?:^.*: (\d+))|(?:\s+\$$)/defined $1?"0\.9":""/eg;
distros/S/SerialNumber-Sequence/Sequence.pm:our $VERSION = sprintf "%d.%02d", q$Revision: 1.1.1.1 $ =~ /: (\d+)\.(\d+)/;
distros/O/OpenCA-X509/X509.pm:($OpenCA::X509::VERSION = '$Revision: 1.47 $' )=~ s/(?:^.*: (\d+))|(?:\s+\$$)/defined $1?"0\.9":""/eg;
distros/H/HTTP-Webdav/Webdav.pm:$VERSION = "0.1.18-0.17.1";
distros/T/Tie-Hash-TwoWay/TwoWay.pm:$VERSION = sprintf "%d.%02d", '$Revision 1.8 $' =~ /(\d+)\.(\d+)/;
distros/H/HTML-Template-Pro/Makefile.PL:our $VERSION='';
distros/O/OpenCA-DBI/DBI.pm:($OpenCA::DBI::VERSION = '$Revision: 1.46 $' )=~ s/(?:^.*: (\d+))|(?:\s+\$$)/defined $1?"2\.0":""/eg; 
distros/O/OpenCA-Session/Session.pm:($OpenCA::Session::VERSION = '$Revision: 1.2 $' )=~ s/(?:^.*: (\d+))|(?:\s+\$$)/defined $1?"0\.9":""/eg;
distros/T/Tie-CArray/CArray.pm:$VERSION = sprintf("%d.%02d", q$Revision: 0.15 $ =~ /(\d+)\.(\d+)/);
distros/O/OpenIndex/OpenIndex.pm:$Apache::OpenIndex::VERSION = '1.04b';
distros/O/OpenCA-CRL/CRL.pm:($OpenCA::CRL::VERSION = '$Revision: 1.17 $' )=~ s/(?:^.*: (\d+))|(?:\s+\$$)/defined $1?"0\.9":""/eg;
distros/O/Orac-alpha/orac_Shell.pm:$VERSION = $VERSION = qq{1.0.14};
distros/A/Astro-Corlate/Corlate.pm:'$Revision: 1.6 $ ' =~ /.*:\s(.*)\s\$/ && ($VERSION = $1);
distros/T/Tk-TreeGraph/TreeGraph.pm:$VERSION = sprintf "%d.%03d", q$Revision: 1.30 $ =~ /(\d+)\.(\d+)/;
distros/A/Apache-AuthCookieURL/AuthCookieURL.pm:$VERSION = sprintf '%d.%03d', q$Revision: 1.3 $ =~ /: (\d+)\.(\d+)/;
distros/H/HTTP-QuickBase/QuickBase.pm:( $VERSION ) = '$Revision: 1.55 $ ' =~ /\$Revision:\s+([^\s]+)/;
distros/A/Apache-AuthCookiePAM/AuthCookiePAM.pm:( $VERSION ) = '$Revision: 1.0 $' =~ /([\d.]+)/;
distros/T/Tk-Stderr/Stderr.pm:($VERSION) = q$Revision: 1.2 $ =~ /Revision:\s+(\S+)/ or $VERSION = "0.0";
distros/T/Text-Repository/Repository.pm:$VERSION = sprintf "%d.%02d", q$Revision: 1.4 $ =~ /(\d+)\.(\d+)/;
distros/A/Apache-Precompress/Precompress.pm:$VERSION = sprintf '%d.%d', q$Revision: 0.1 $ =~ /: (\d+).(\d+)/;
distros/S/Sys-HostAddr/HostAddr.pm:our ($VERSION) = q$Revision: 0.993 $ =~ /(\d+\.\d+)/;
distros/A/Authen-PAM/PAM.pm.in:$VERSION = '@PACKAGE_VERSION@';
distros/A/Astro-ADS/adsquery.PL:$VERSION = (qw$Revision: 1.1 $ )[1];
distros/H/HTML-FormRemove/FormRemove.pm:$VERSION = "0.3a";
distros/S/Statistics-LSNoHistory/LSNoHistory.pm:$VERSION = sprintf("%d.%02d", (q$Name: LSNoHist_Release_0_01 $ =~ /\d+/g));
distros/A/AnyEvent-Handle-Throttle/Build.PL:our $MAJOR = 0.00; our $MINOR = 2; our $DEV = -5; our $VERSION = sprintf('%1.3f%03d' . ($DEV ? (($DEV < 0 ? '' : '_') . '%03d') : ('')), $MAJOR, $MINOR, abs $DEV);
distros/A/App-geoip/geoip:our $VERSION = "0.13 - 20200409";
distros/A/Astro-Aladin/Aladin.pm:'$Revision: 1.3 $ ' =~ /.*:\s(.*)\s\$/ && ($VERSION = $1);
distros/A/Apache-Layer/Layer.pm:$VERSION = sprintf("%d.%02d", q$Revision: 1.7 $ =~ /(\d+)\.(\d+)/);
distros/S/Spreadsheet-BasicReadNamedCol/BasicReadNamedCol.pm:our $VERSION = sprintf("%d.%02d", q'$Revision: 1.3 $' =~ /(\d+)\.(\d+)/);
distros/T/Tk-HexEntry/HexEntryPlain.pm:$VERSION = sprintf("%d.%02d", q$Revision: 0.01 $ =~ /(\d+)\.(\d+)/);
distros/T/Tk-HexEntry/HexEntry.pm:$VERSION = sprintf("%d.%02d", q$Revision: 0.01 $ =~ /(\d+)\.(\d+)/);
distros/H/HTML-Template-Set/Set.pm:  $VERSION = do { my @r=(q$Revision: 1.9 $=~/\d+/g); sprintf "%d."."%03d"x$#r,@r };
distros/A/Agent/Agent.pm:$VERSION = "$MAJORVERSION.$MINORVERSION$MICROVERSION";
distros/A/AI-NaiveBayes1/NaiveBayes1.pm:$Version = $VERSION = '2.007';
distros/T/Tie-Array-Iterable/Iterable.pm:    ( $VERSION ) = '$Revision: 0.03 $ ' =~ /\$Revision:\s+([^\s]+)/;
distros/T/Tie-StrictHash/StrictHash.pm:($VERSION) = q$Revision: 1.0 $ =~ /^Revision:\s+([\d.]+)\s*$/;
distros/A/Async-Group/Group.pm:$VERSION =  substr q$Revision: 1.2 $, 10;
distros/S/Syndication-NewsML/NewsML.pm:$VERSION     = sprintf("%d.%02d", q$Revision: 0.10 $ =~ /(\d+)\.(\d+)/);
distros/A/Alias/Alias.pm:$VERSION = $VERSION = '2.32';
distros/T/Thread-RWLock/RWLock.pm:    $VERSION = do { my @r = (q$Revision: 1.2 $ =~ /\d+/g); sprintf "%d."."%02d" x $#r, @r }; # must be all one line, for MakeMaker
distros/S/Syndication-NITF/NITF.pm:$VERSION     = sprintf("%d.%02d", q$Revision: 0.2 $ =~ /(\d+)\.(\d+)/);
distros/S/Spectrum-CLI/CLI.pm:'$Revision: 1.16 $' =~ m/(\d+)\.(\d+)/ && (( $Spectrum::CLI::VERSION ) = sprintf("%d.%03d", $1, $2));
distros/S/Scanner/Version:$VERSION = '0.02-5';
distros/e/ex-override/override.pm:$VERSION = (qw$Revision: 1.1 $)[1];
distros/T/Tie-Dir/Dir.pm:$VERSION = sprintf("%d.%02d", q$Revision: 1.2 $ =~ /(\d+)\.(\d+)/);
distros/T/TapeChanger-MTX/nexttape:our $VERSION = "0.5b";
distros/T/TapeChanger-MTX/tapechanger:our $VERSION = "0.5b";
distros/T/Text-Typoifier/Typoifier.pm:our $VERSION = '0.04a';
distros/F/Finance-Currency-ParValueSeparate/ParValueSeparate.pm:our $VERSION = sprintf "%d.%02d", q$Revision: 1.3 $ =~ /: (\d+)\.(\d+)/;
distros/T/Tk-Autoscroll/Autoscroll.pm:$VERSION = sprintf "%d.%02d", q$Revision: 1.14 $ =~ /(\d+)\.(\d+)/;
distros/T/Template-Stash-HTML-Entities/Makefile.PL:our $VERSION = eval { require version; version::qv('1.3.1') };
distros/F/FusionInventory-Agent/README.Packaging:our $VERSION = "2.4.2-1";
distros/F/File-Log/Log.pm:$VERSION = sprintf("%d.%02d", q'$Revision: 1.5 $' =~ /(\d+)\.(\d+)/);
distros/A/Apache-SecSess/SecSess.pm:$VERSION = sprintf("%d.%02d", (q$Name: SecSess_Release_0_09 $ =~ /\d+/g));
distros/A/AppConfig-MyFile/MyFile.pm:$VERSION = sprintf("%d.%02d", q$Revision$ =~ /(\d+)\.(\d+)/);
distros/F/FileHash/Version:$VERSION = '0.01-3';
distros/F/File-TinyLock/TinyLock.pm:our ($VERSION) = q$Revision: 1.20 $ =~ /(\d+\.\d+)/;
distros/F/File-FindByRegex/FindByRegex.pm:( $VERSION ) = '$Revision: 1.2 $ ' =~ /\$Revision:\s+([^\s]+)/;
distros/F/File-Grep/Grep.pm:  $VERSION     = sprintf( "%d.%02d", q( $Revision: 0.02 $ ) =~ /\s(\d+)\.(\d+)/ );
distros/A/Apache-ErrorControl/ErrorControl.pm:  $VERSION = do {my @r=(q$Revision: 1.26 $=~/\d+/g); sprintf "%d."."%03d"x$#r,@r};
distros/F/File-Repl/Repl.pm:our $VERSION = sprintf("%d.%d", q$Revision: 2.3 $ =~ /(\d+)\.(\d+)/);
distros/A/Astro-DSS/DSS.pm:'$Revision: 1.7 $ ' =~ /.*:\s(.*)\s\$/ && ($VERSION = $1);
distros/T/Template-Plugin-SSI/SSI.pm:$VERSION = sprintf("%d.%02d", q$Revision: 0.11 $ =~ /(\d+)\.(\d+)/);
distros/T/Tk-Contrib/Axis.pm:$VERSION = substr(q$Revision: 1.5 $, 10) + 1;
distros/T/Tk-Contrib/OlWm.pm:$VERSION = substr(q$Revision: 1.3 $, 10) + 1;
distros/T/Tk-Contrib/TiedListbox.pm:$VERSION = substr(q$Revision: 1.5 $, 10) + 1;
distros/T/Tk-Contrib/Dial.pm:$VERSION = substr(q$Revision: 1.5 $, 10) + 1;
distros/A/Astro-VO-VOEvent/VOEvent.pm:'$Revision: 1.29 $ ' =~ /.*:\s(.*)\s\$/ && ($VERSION = $1);
distros/T/Tk-Tree/HList.pm.patched:$VERSION = '2.013ctd'; # $Id: //depot/Tk/HList/HList.pm#13$
distros/F/File-Signature/Signature.pm:$VERSION = sprintf "%d.%03d", q$Revision: 1.9 $ =~ /(\d+)\.(\d+)/;
distros/A/App-ccdiff/Makefile.PL:    $VERSION = $1;
distros/F/Fault/Version:$VERSION = '1.01-2';
distros/R/Regexp-HTMLify/HTMLify.pm:$VERSION = sprintf('%d.%03d', q$Revision: 0.002 $ =~ m#(\d+)\.(\d+)#);
distros/F/Filesys-SmbClientParser/SmbClientParser.pm:$VERSION = ('$Revision: 2.7 $ ' =~ /(\d+\.\d+)/)[0];
distros/F/Filesys-SmbClient/SmbClient.pm:$VERSION = ('$Revision: 3.2 $ ' =~ /(\d+\.\d+)/)[0];
distros/A/Apache-Traffic/Traffic.pm:$VERSION = sprintf("%d.%02d", q$Revision: 1.2 $ =~ /(\d+)\.(\d+)/o);
distros/F/Frontier-RPC/Makefile.PL:$VERSION = '0.07b4';
distros/R/Release-Checklist/md2pod.pl:our $VERSION = "0.04 - 20190829";
distros/R/Release-Checklist/pod2pm.pl:our $VERSION = "0.03 - 20190829";
distros/R/Release-Checklist/check-versions.pl:our $VERSION = "0.01 - 20180330";
distros/R/Release-Checklist/md2html.pl:our $VERSION = "0.04 - 20191106";
distros/T/Tk-autobind/autobind.pm:($VERSION) = q$Revision: 1.2 $ =~ /^Revision:\s+(\S+)/ or $VERSION = "0.0";
distros/A/Apache-Gateway/Gateway.pm:$Apache::Gateway::VERSION = sprintf("%d.%02d", q$Revision: 1.12 $ =~ /(\d+)\.(\d+)/g);
distros/R/Randomize/Randomize.pm:our ($VERSION) = '$Revision: 1.10 $'=~/(\d+(\.\d+))/;
distros/A/Astro-Bibcode/Bibcode.pm:$VERSION = sprintf("%d.%03d", q$Revision: 0.3 $ =~ /(\d+)\.(\d+)/);
distros/R/REST-Resource/Build.PL:        our( $VERSION ) = '$build_number';
distros/T/Tk-Enscript/Enscript.pm:$VERSION = sprintf "%d.%02d", q$Revision: 1.10 $ =~ /(\d+)\.(\d+)/;
distros/A/Authen-Krb5-KDB/gen_kdb_h.plx:$VERSION = do{my@r=q$Revision: 1.8 $=~/\d+/g;sprintf '%d.'.'%02d'x$#r,@r};
distros/A/Authen-Krb5-KDB/gen_dummy_kdb_pm.plx:$VERSION = do{my@r=q$Revision: 1.1 $=~/\d+/g;sprintf '%d.'.'%02d'x$#r,@r};
distros/A/Authen-Krb5-KDB/KDB.in:$VERSION = do{my@r=q$Revision: 1.10 $=~/\d+/g;sprintf '%d.'.'%02d'x$#r,@r};
distros/T/Tk-Date/TkDate.pm:$VERSION = sprintf("%d.%02d", q$Revision: 1.4 $ =~ /(\d+)\.(\d+)/);
distros/T/Tk-MenuHash/MenuHash.pm:($VERSION)	= '$Revision: 1.12 $' =~ /\$Revision:\s+([^\s]+)/;
distros/A/Apache-ImageMagick/ImageMagick.pm:$VERSION = '2.0b7' ;
distros/R/RWDE-Doxy/Doxy.pm:$VERSION = sprintf "%d", q$Revision: 518 $ =~ /(\d+)/;
distros/T/Tk-GBARR/NumEntryPlain.pm:$VERSION = sprintf("%d.%02d", q$Revision: 1.10 $ =~ /(\d+)\.(\d+)/);
distros/T/Tk-GBARR/TFrame.pm:$VERSION = sprintf("%d.%02d", q$Revision: 2.2 $ =~ /(\d+)\.(\d+)/);
distros/T/Tk-GBARR/FireButton.pm:$VERSION = sprintf("%d.%02d", q$Revision: 1.5 $ =~ /(\d+)\.(\d+)/);
distros/T/Tk-GBARR/Cloth.pm:$VERSION = sprintf("%d.%02d", q$Revision: 2.3 $ =~ /(\d+)\.(\d+)/);
distros/T/Tk-GBARR/NumEntry.pm:$VERSION = sprintf("%d.%02d", q$Revision: 2.6 $ =~ /(\d+)\.(\d+)/);
distros/y/yagg/yagg:$VERSION = sprintf "%d.%02d%02d", q/1.40.12/ =~ /(\d+)/g;
distros/y/yagg/random_generator:$VERSION = sprintf "%d.%02d%02d", q/1.30.1/ =~ /(\d+)/g;
distros/A/Array-LineReader/LineReader.pm:	$VERSION = sprintf("%d.%02d", q$Revision: 1.1 $ =~ /(\d+)\.(\d+)/);
distros/A/Apache-AuthCookieLDAP/AuthCookieLDAP.pm:( $VERSION ) = '$Revision: 0.03 $' =~ /([\d.]+)/;
distros/T/Text-Smart/META.yml.PL:	$VERSION=$1;
distros/p/perl-GPS/Serial.pm:$VERSION = sprintf("%d.%02d", q$Revision: 1.18 $ =~ /(\d+)\.(\d+)/);
distros/p/perl_mlb/DB.pm:  $DB::VERSION = $DB::VERSION = '1.0';
distros/p/perl-GPS/Garmin.pm:$VERSION = sprintf("%d.%02d", q$Revision: 1.34 $ =~ /(\d+)\.(\d+)/);
distros/p/perl-GPS/Base.pm:$VERSION = sprintf("%d.%02d", q$Revision: 1.4 $ =~ /(\d+)\.(\d+)/);
distros/p/perl/configpm:$VERSION = "%s";
distros/G/GD-Convert/Convert.pm:$VERSION = sprintf("%d.%02d", q$Revision: 2.16 $ =~ /(\d+)\.(\d+)/);
distros/A/Apache-File-Resumable/Resumable.pm:our $VERSION = sprintf '%s', 'q$Revision: 1.1.1.1 $' =~ /\S+\s+(\S+)\s+/ ;
distros/A/Audio-DB/DB.pm:$VERSION = '';
distros/G/Games-Go-AGATourn/AGATourn.pm:    our $VERSION = sprintf "%d.%03d", '$Revision: 1.35 $' =~ /(\d+)/g;
distros/I/IPTables-IPv4-DBTarpit/DBTarpit.pm:$VERSION = do { q|char version[] = "dbtarpit 0.44, 1-27-14";| =~ /(\d+)\.(\d+)/; sprintf("%d.%02d",$1,$2)};
distros/A/Audio-Daemon-MPG123/MPG123.pm:$VERSION='0.9Beta';
distros/N/Net-DBus/META.yml.PL:	$VERSION=$1;
distros/N/Net-DBus/perl-Net-DBus.spec.PL:       $VERSION=$1;
distros/N/News-Article/Article.pm:($VERSION = (split (' ', q$Revision: 1.27 $ ))[1]) =~ s/\.(\d)$/.0$1/;
distros/G/GDGraph-XY/xylinespoints.pm:$GD::Graph::xylinespoints::VERSION = '$Revision: 1.10 $' =~ /\s([\d.]+)/;
distros/G/GDGraph-XY/xypoints.pm:$GD::Graph::xypoints::VERSION = '$Revision: 1.10 $' =~ /\s([\d.]+)/;
distros/G/GDGraph-XY/xylines.pm:$GD::Graph::xylines::VERSION = '$Revision: 1.10 $' =~ /\s([\d.]+)/;
distros/I/IPC-LDT/LDT.pm:$VERSION=$VERSION=1.00;
distros/G/Game-Life/Life.pm:    $VERSION     = sprintf( "%d.%02d", q($Revision: 0.06 $) =~ /\s(\d+)\.(\d+)/ );
distros/A/Apache-HTMLView/HTMLView.pm:( $VERSION ) = '$Revision: 0.91 $' =~ /([\d.]+)/;
distros/N/NetAddr-IP/IP.pm:$VERSION = do { sprintf " %d.%03d", (q$Revision: 4.79 $ =~ /\d+/g) };
distros/G/Games-Rezrov/rezrov:$main::VERSION = $main::VERSION = '0.20';
distros/N/Number-ZipCode-JP/regexp-table-maker.pl:$VERSION  = "0." . do { (my $ymd = $UPDATED) =~ s/-//g; $ymd };
distros/G/Getopt-Euclid/README:            BEGIN { use version; our $VERSION = qv('1.2.3') }
distros/A/Audio-Daemon/Daemon.pm:$VERSION='0.99Beta';
distros/A/AssistantFrames/AFDialogs.pm:$VERSION = "0.1a";
distros/N/Number-Phone-JP/regexp-table-maker.pl:$VERSION  = "0." . do { (my $ymd = $UPDATED) =~ s/-//g; $ymd };
distros/N/Net-ICal-VTIMEZONES/install_vtimezones.pl:$VERSION = (qw'$Revision: 1.4 $')[1];
distros/N/Net-Gnutella/Gnutella.pm:$VERSION = $VERSION = "0.1";
distros/N/Net-SNMP-Vendor/Vendor.pm:our $VERSION = sprintf "%d.%02d", q$Revision: 0.01 $ =~ m/ (\d+) \. (\d+) /xg;
distros/N/Net-DHCPClient/DHCPClient.pm:$Net::DHCPClient::VERSION = (qw($Revision: 1.0 $))[1];
distros/N/Net-DBus-GLib/META.yml.PL:	$VERSION=$1;
distros/N/Net-DBus-GLib/Net-DBus-GLib.spec.PL:	$VERSION=$1;
distros/G/Geo-PostalAddress/Makefile.PL:          $Locale::SubCountry::VERSION = $ExtUtils::MakeMaker::VERSION;
distros/G/Getopt-EvaP/EvaP.pm:$Getopt::EvaP::VERSION |= '2.8';
distros/G/Getopt-Yagow/Yagow.pm:$VERSION = sprintf("%d.%02d", q$Revision: 1.1 $ =~ /(\d+)\.(\d+)/);
distros/G/GraphViz-Makefile/tkgvizmakefile:$VERSION = sprintf("%d.%02d", q$Revision: 1.9 $ =~ /(\d+)\.(\d+)/);
distros/N/Net-Interface/Interface.pm:$VERSION = do { sprintf "%d.%03d", (q$Revision: 1.16 $ =~ /\d+/g) };
distros/u/uni-perl/t/01-tests.t:package A; $A::VERSION = 1;
distros/N/Net-Patricia/Patricia.pm:'$Revision: 1.22 $' =~ m/(\d+)\.(\d+)((_\d+)|)/ && ( $VERSION = "$1.$2$3");
distros/N/Net-ICB/README:       $VERSION = 'X.XX';
distros/N/Net-Msmgr/Msmgr.pm:our $VERSION = substr(q$Revision: 0.16 $,10);
distros/r/releasesystem/rlsmgr/deploy_content:$VERSION = do {my @r=(q$Revision: 1.2 $=~/\d+/g);sprintf "%d."."%02d"x$#r,@r};;
distros/r/releasesystem/Autodoc/deploy_content_doc.html:$VERSION = do {my @r=(q$Revision: 1.1 $=~/\d+/g);sprintf "%d."."%02d"x$#r,@r};;
distros/N/Net-DNS-TestNS/TestNS.pm:$VERSION = (qw$LastChangedRevision: 461 $)[1];
distros/N/Net-MSN/MSN.pm:  $VERSION = do { my @r=(q$Revision: 1.22 $=~/\d+/g); sprintf "%d."."%03d"x$#r,@r }; 
distros/N/Net-Dict/tkdict:$VERSION = sprintf("%d.%d", q$Revision: 1.1.1.1 $ =~ /(\d+)\.(\d+)/);
distros/N/Net-Dict/dict:$VERSION = sprintf("%d.%d", q$Revision: 1.2 $ =~ /(\d+)\.(\d+)/);
distros/N/News-Web/news.cgi:$VERSION = "0.021a";
distros/N/NewsClipper/NewsClipper.pl:$VERSION = do {my @r=(q$ 1.3.2 $=~/\d+/g);sprintf"%d."."%1d"x$#r,@r};
distros/N/Net-FreeDB2/FreeDB2.pm:our ( $VERSION ) = '$Revision: 0.8.2.6 $ ' =~ /\$Revision:\s+([^\s]+)/;
distros/N/NoZone/perl-NoZone.spec.PL:        $VERSION=$1;
distros/N/Number-Uncertainty/Uncertainty.pm:'$Revision: 1.4 $ ' =~ /.*:\s(.*)\s\$/ && ($VERSION = $1);
distros/N/NNTPClient/NNTPClient.pm:$VERSION = (qw$Revision: 0.37 $)[1];
distros/K/Kolab/lib/Kolab.pm:our $VERSION = sprintf('%d.%02d', q$Revision: 1.2 $ =~ /(\d+)\.(\d+)/);
distros/E/Email-MIME-Kit-Bulk/t/basic-script.t:$Email::MIME::Kit::Bulk::VERSION ||= '0.0';
distros/E/Email-MIME-Kit-Bulk/t/destinations.t:$Email::MIME::Kit::Bulk::VERSION ||= "0.0";
distros/E/EAFDSS/lib/EAFDSS.pm:our($VERSION) = '0.80';
distros/E/Encode-Guess-Educated/bin/gank:our $VERSION = "1.0 (2012-12-28)";
distros/E/Encode/KR/KR.pm:our $VERSION = do { my @r = ( q$Revision: 2.3 $ =~ /\d+/g ); sprintf "%d." . "%02d" x $#r, @r };
distros/E/Encode/Unicode/Unicode.pm:our $VERSION = do { my @r = ( q$Revision: 2.18 $ =~ /\d+/g ); sprintf "%d." . "%02d" x $#r, @r };
distros/E/Encode/JP/JP.pm:our $VERSION = do { my @r = ( q$Revision: 2.4 $ =~ /\d+/g ); sprintf "%d." . "%02d" x $#r, @r };
distros/E/Encode/EBCDIC/EBCDIC.pm:our $VERSION = do { my @r = ( q$Revision: 2.2 $ =~ /\d+/g ); sprintf "%d." . "%02d" x $#r, @r };
distros/E/Encode/Symbol/Symbol.pm:our $VERSION = do { my @r = ( q$Revision: 2.2 $ =~ /\d+/g ); sprintf "%d." . "%02d" x $#r, @r };
distros/E/Encode/Byte/Byte.pm:our $VERSION = do { my @r = ( q$Revision: 2.4 $ =~ /\d+/g ); sprintf "%d." . "%02d" x $#r, @r };
distros/E/Encode/CN/CN.pm:our $VERSION = do { my @r = ( q$Revision: 2.3 $ =~ /\d+/g ); sprintf "%d." . "%02d" x $#r, @r };
distros/E/Encode/TW/TW.pm:our $VERSION = do { my @r = ( q$Revision: 2.3 $ =~ /\d+/g ); sprintf "%d." . "%02d" x $#r, @r };
distros/L/LEOCHARRE-Dev/bin/cpanupload:$VERSION = sprintf("%d.%d", q$Revision: 1.1 $ =~ /(\d+)\.(\d+)/);
distros/B/Bio-Das-Lite/t/20-authentication.t:our $VERSION = do { my @r = (q$Revision: 19 $ =~ /\d+/mxg); sprintf '%d.'.'%03d' x $#r, @r };
distros/B/Bio-Das-Lite/t/50-entry_points.t:our $VERSION = do { my @r = (q$Revision: 53 $ =~ /\d+/mxg); sprintf '%d.'.'%03d' x $#r, @r };
distros/B/Bio-Das-Lite/t/02-statuscodes.t:our $VERSION = do { my @r = (q$Revision: 19 $ =~ /\d+/mxg); sprintf '%d.'.'%03d' x $#r, @r };
distros/B/Bio-Das-Lite/t/60-features_empty.t:our $VERSION = do { my @r = (q$Revision: 53 $ =~ /\d+/mxg); sprintf '%d.'.'%03d' x $#r, @r };
distros/B/Bio-Das-Lite/t/01-general.t:our $VERSION = do { my @r = (q$Revision: 45 $ =~ /\d+/mxg); sprintf '%d.'.'%03d' x $#r, @r };
distros/B/Bio-Das-Lite/t/60-features.t:our $VERSION = do { my @r = (q$Revision: 53 $ =~ /\d+/mxg); sprintf '%d.'.'%03d' x $#r, @r };
distros/B/Bio-Das-Lite/t/05-singledsn.t:our $VERSION = do { my @r = (q$Revision: 43 $ =~ /\d+/mxg); sprintf '%d.'.'%03d' x $#r, @r };
distros/B/Bio-Das-Lite/t/00-critic.t:our $VERSION = do { my @r = (q$Revision: 19 $ =~ /\d+/mxg); sprintf '%d.'.'%03d' x $#r, @r };
distros/B/Bio-Das-Lite/t/90-sources.t:our $VERSION = do { my @r = (q$Revision: 53 $ =~ /\d+/mxg); sprintf '%d.'.'%03d' x $#r, @r };
distros/B/Bio-Das-Lite/t/70-alignment.t:our $VERSION  = do { my @r = (q$Revision: 53 $ =~ /\d+/mxg); sprintf '%d.'.'%03d' x $#r, @r };
distros/B/Bio-Das-Lite/t/FileStub.pm:our $VERSION = do { my @r = (q$Revision: 19 $ =~ /\d+/mxg); sprintf '%d.'.'%03d' x $#r, @r };
distros/B/Bio-Das-Lite/t/06-singledsn-singleseg.t:our $VERSION = do { my @r = (q$Revision: 53 $ =~ /\d+/mxg); sprintf '%d.'.'%03d' x $#r, @r };
distros/B/Bio-Das-Lite/t/07-singledsn-multiseg.t:our $VERSION = do { my @r = (q$Revision: 19 $ =~ /\d+/mxg); sprintf '%d.'.'%03d' x $#r, @r };
distros/B/Bio-Das-Lite/t/45-sequence.t:our $VERSION = do { my @r = (q$Revision: 53 $ =~ /\d+/mxg); sprintf '%d.'.'%03d' x $#r, @r };
distros/B/Bio-Das-Lite/t/00-distribution.t:our $VERSION = do { my @r = (q$Revision: 19 $ =~ /\d+/mxg); sprintf '%d.'.'%03d' x $#r, @r };
distros/B/Bio-Das-Lite/t/40-dna.t:our $VERSION = do { my @r = (q$Revision: 53 $ =~ /\d+/mxg); sprintf '%d.'.'%03d' x $#r, @r };
distros/B/Bio-Das-Lite/t/10-multidsn.t:our $VERSION = do { my @r = (q$Revision: 43 $ =~ /\d+/mxg); sprintf '%d.'.'%03d' x $#r, @r };
distros/B/Bio-Das-Lite/t/80-structure.t:our $VERSION  = do { my @r = (q$Revision: 53 $ =~ /\d+/mxg); sprintf '%d.'.'%03d' x $#r, @r };
distros/B/Bio-Das-Lite/t/FileStubCompat.pm:our $VERSION = do { my @r = (q$Revision: 19 $ =~ /\d+/mxg); sprintf '%d.'.'%03d' x $#r, @r };
distros/B/Bio-Das-Lite/t/61-features_group.t:our $VERSION = do { my @r = (q$Revision: 53 $ =~ /\d+/mxg); sprintf '%d.'.'%03d' x $#r, @r };
distros/B/Bio-Das-Lite/t/FileStubChunked.pm:our $VERSION = do { my @r = (q$Revision: 19 $ =~ /\d+/mxg); sprintf '%d.'.'%03d' x $#r, @r };
distros/B/Bio-Das-Lite/t/60-features_chunked.t:our $VERSION = do { my @r = (q$Revision: 53 $ =~ /\d+/mxg); sprintf '%d.'.'%03d' x $#r, @r };
distros/B/Bundle-WWW-Scraper-Job/eg/SearchJobs.pl:$VERSION = sprintf("%d.%02d", q$Revision: 1.0 $ =~ /(\d+)\.(\d+)/);
distros/B/B-C/t/testcc.sh:tests[23]='package MyMod; our $VERSION = 1.3; print "ok";'
distros/B/B-C/t/testplc.sh:tests[23]='package MyMod; our $VERSION = 1.3; print "ok";'
okdistros/B/B-C/t/testc.sh:tests[23]='package MyMod; our $VERSION = 1.3; print "ok";'
distros/B/BT368i/lib/BT368i.pm:our $VERSION = sprintf("%d.%02d", q$Revision: 1.00 $ =~ /(\d+)\.(\d+)/);
distros/i/iCal-Parser-SAX/scripts/ical2xml:our $VERSION=sprintf("%d.%02d", q$Revision: 1.7 $ =~ /(\d+)\.(\d+)/);
distros/E/Email-Sender/t/smtp-via-mock.t:  eval '$Net::SMTP::VERSION = "3.07"';
distros/i/iCal-Parser-HTML/examples/ical.cgi:our $VERSION=sprintf("%d.%02d", q$Revision: 1.6 $ =~ /(\d+)\.(\d+)/);
distros/i/iCal-Parser-HTML/scripts/ical2html:our $VERSION=sprintf("%d.%02d", q$Revision: 1.3 $ =~ /(\d+)\.(\d+)/);
distros/B/Benchmark-Harness-Graph/t/t.t:use vars qw($VERSION); $VERSION = sprintf("%d.%02d", q$Revision: 1.1 $ =~ /(\d+)\.(\d+)/);
distros/B/Bio-Prospect/bin/Align.pl:$VERSION = sprintf( "%d.%02d", q$Revision: 1.7 $ =~ /(\d+)\.(\d+)/ );
distros/B/Bio-Prospect/bin/pingProspectSoapServer:$VERSION = sprintf( "%d.%02d", q$Revision: 1.6 $ =~ /(\d+)\.(\d+)/ );
distros/B/Bio-Prospect/bin/LocalClient.pl:$VERSION = sprintf( "%d.%02d", q$Revision: 1.12 $ =~ /(\d+)\.(\d+)/ );
distros/B/Bio-Prospect/bin/p2alignments:$VERSION = sprintf( "%d.%02d", q$Revision: 1.8 $ =~ /(\d+)\.(\d+)/ );
distros/B/Bio-Prospect/bin/SoapClient.pl:$VERSION = sprintf( "%d.%02d", q$Revision: 1.6 $ =~ /(\d+)\.(\d+)/ );
distros/B/Bio-Prospect/bin/p2rasmol:$VERSION = sprintf( "%d.%02d", q$Revision: 1.7 $ =~ /(\d+)\.(\d+)/ );
distros/B/Bio-Prospect/bin/startProspectSoapServer:$VERSION = sprintf( "%d.%02d", q$Revision: 1.7 $ =~ /(\d+)\.(\d+)/ );
distros/B/Bio-Prospect/bin/processPdbFiles:$VERSION = sprintf( "%d.%02d", q$Revision: 1.10 $ =~ /(\d+)\.(\d+)/ );
distros/B/Bio-Prospect/t/LocalClient.t:$VERSION = sprintf( "%d.%02d", q$Revision: 1.4 $ =~ /(\d+)\.(\d+)/ );
distros/B/Benchmark-Harness/Harness/ValuesHighRes.pm:use vars qw($VERSION); $VERSION = sprintf("%d.%02d", q$Revision: 1.1 $ =~ /(\d+)\.(\d+)/);
distros/B/Benchmark-Harness/Harness/Trace.pm:use vars qw($VERSION); $VERSION = sprintf("%d.%02d", q$Revision: 1.2 $ =~ /(\d+)\.(\d+)/);
distros/B/Benchmark-Harness/Harness/Values.pm:use vars qw($VERSION); $VERSION = sprintf("%d.%02d", q$Revision: 1.1 $ =~ /(\d+)\.(\d+)/);
distros/B/Benchmark-Harness/Harness/Handler.pm:use vars qw($VERSION); $VERSION = sprintf("%d.%02d", q$Revision: 1.1 $ =~ /(\d+)\.(\d+)/);
distros/B/Benchmark-Harness/Harness/TraceHighRes.pm:use vars qw($VERSION); $VERSION = sprintf("%d.%02d", q$Revision: 1.1 $ =~ /(\d+)\.(\d+)/);
distros/B/Bio-Das-ProServer/t/critic.t:our $VERSION = do { my ($v) = (q$LastChangedRevision: 687 $ =~ /\d+/mxsg); $v; };
distros/B/Bio-Das-ProServer/t/distribution.t:our $VERSION = do { my ($v) = (q$LastChangedRevision: 687 $ =~ /\d+/mxg); $v; };
distros/B/Bio-Das-ProServer/eg/proserver.cgi:our $VERSION = do { my ($v) = (q$Revision: 687 $ =~ /\d+/mxg); $v; };
distros/W/WWW-Mailman/t/05-new.t:$WWW::Mailman::VERSION ||= 'undefined';
distros/W/WWW-Mailman/t/11-_uri_for.t:$WWW::Mailman::VERSION ||= 'undefined';
distros/W/WWW-Mailman/t/90-live.t:$WWW::Mailman::VERSION ||= 'undefined';
distros/W/WWW-Mailman/t/10-uri.t:$WWW::Mailman::VERSION ||= 'undefined';
distros/W/Wx-Perl-TreeChecker/demo/treechecker.pl:$VERSION = sprintf'%d.%02d', q$Revision: 1.1.1.1 $ =~ /: (\d+)\.(\d+)/;
distros/L/Linux-TunTap/t/use.t:$VERSION = do { my @r=(q$Revision: 1.1 $=~/\d+/g); sprintf "%d."."%03d"x$#r,@r };
distros/W/Wais/lib/Wais.pm:'$ProjectVersion: 23.11 $ ' =~ /(\d+)\.(\d+)/; $VERSION = $1/10 + $2/1000;
distros/B/Bundle-STBEY/t/00_version.t:$Bundle::STBEY::VERSION = $Bundle::STBEY::VERSION = 0;
distros/P/Perl-Tidy/t/snippets11.t:our $VERSION = do { my @r = ( q$Revision: 2.2 $ =~ /\d+/g ); sprintf "%d." . "%02d" x $#r, @r }
distros/P/POD2-FR/FR/perlfunc.pod:    our $VERSION : unique = "1.00";
distros/B/Bundle-STBEY-Favourites/t/00_version.t:$Bundle::STBEY::Favourites::VERSION = $Bundle::STBEY::Favourites::VERSION = 0;
distros/L/Link_Controller/ideas/ElephantAgent.pm:$REVISION=q$Revision: 1.3 $ ; $VERSION = sprintf ( "%d.%02d", $REVISION =~ /(\d+).(\d+)/ );
distros/L/Lingua-Alphabet-Phonetic/t/pod-coverage.t:$VERSION = do { my @r = (q$Revision: 1.2 $ =~ /\d+/g); sprintf "%d."."%03d" x $#r, @r };
distros/L/Lingua-Alphabet-Phonetic/script/phonetize:$VERSION = do { my @r = (q$Revision: 1.2 $ =~ /\d+/g); sprintf "%d."."%03d" x $#r, @r };
distros/W/WWW-Ebay/t/pod-coverage.t:$VERSION = do { my @r = (q$Revision: 1.1 $ =~ /\d+/g); sprintf "%d."."%03d" x $#r, @r };
distros/P/PostScript-MailLabels/demo/AddressBook.pm:$VERSION = sprintf "%d.%02d", q$Revision: 1.0 $ =~ m#(\d+)\.(\d+)#;
distros/L/Locale-Codes/internal/gen_mods:   $VERSION = $1;
distros/B/Bundle-WWW-Scraper-News/eg/SearchJobs.pl:$VERSION = sprintf("%d.%02d", q$Revision: 1.0 $ =~ /(\d+)\.(\d+)/);
distros/B/Bio-Pipeline-Comparison/lib/Vcf.pm:our $VERSION = 'r779';
distros/W/Win32-IIS-Admin/t/pod-coverage.t:$VERSION = do { my @r = (q$Revision: 1.2 $ =~ /\d+/g); sprintf "%d."."%03d" x $#r, @r };
distros/W/WWW-Search-AltaVista/t/pod-coverage.t:$VERSION = do { my @r = (q$Revision: 1.2 $ =~ /\d+/g); sprintf "%d."."%03d" x $#r, @r };
distros/L/Log-Report-Lexicon/t/21pot_modif.t:$Log::Report::VERSION = 'SOME_VERSION';
distros/P/PML/Apache/mod_pml.pm:$VERSION	= VERSION;
distros/P/PML/PML/Storable.pm:$VERSION	= VERSION;
distros/W/Win32API-MIDI/MIDI/Out.pm:$VERSION = $ver =~ m/\s+(\d+\.\d+)\s+/;
distros/W/Win32API-MIDI/MIDI/SysEX.pm:$VERSION = $ver =~ m/\s+(\d+\.\d+)\s+/;
distros/W/WWW-Search/Programs/AutoSearch:$VERSION = do { my @r = (q$Revision: 1.2 $ =~ /\d+/g); sprintf "%d."."%03d" x $#r, @r };
distros/L/LCFG-Build-Skeleton/templates/COMPONENT.pl.tt:our $VERSION = '@LCFG_VERSION@';
distros/L/LCFG-Build-Skeleton/templates/COMPONENT.pm.tt:our $VERSION = '@LCFG_VERSION@';
distros/W/WWW-Scraper-Lite/bin/validator:our $VERSION    = do { my ($r) = q$Revision: 11 $ =~ /(\d+)/smx; $r; };
distros/W/WWW-Scraper-Lite/t/00-critic.t:our $VERSION = do { my ($r) = q$Revision: 11 $ =~ /(\d+)/smx; $r; };
distros/W/WWW-Scraper-Lite/t/00-pod.t:our $VERSION = do { my @r = (q$Revision: 11 $ =~ /\d+/mxg); sprintf '%d.'.'%03d' x $#r, @r };
distros/W/WWW-Scraper-Lite/t/00-distribution.t:our $VERSION = do { my @r = (q$Revision: 11 $ =~ /\d+/mxg); sprintf '%d.'.'%03d' x $#r, @r };
distros/W/WWW-Scraper-Lite/bin/indexer:our $VERSION    = do { my ($r) = q$Revision: 11 $ =~ /(\d+)/smx; $r; };
distros/W/WWW-Scraper-Lite/t/00-podcoverage.t:our $VERSION = do { my @r = (q$Revision: 11 $ =~ /\d+/mxg); sprintf '%d.'.'%03d' x $#r, @r };
distros/B/BioPerl-Run/scripts/papplmaker.PLS:    $VERSION = do { my @r = (q[$Revision: 1.8 $] =~ /\d+/g); sprintf "%d.%-02d", @r };
distros/B/BioPerl-Run/scripts/panalysis.PLS:    $VERSION = do { my @r = (q[$Revision: 1.10 $] =~ /\d+/g); sprintf "%d.%-02d", @r };
distros/B/Bio-IlluminaSAV/Bio/IlluminaSAV.pm:our $VERSION = '1.0.' . [qw$Revision: 9706 $]->[1];
distros/P/POE-Component-Client-MSN/examples/msn-bot-noterm.pl:our $VERSION = (qw($Revision: 1.3 $))[1];
distros/P/POE-Component-Client-MSN/examples/msn-bot.pl:our $VERSION = (qw($Revision: 1.5 $))[1];
distros/W/W3C-LogValidator/samples/NewModule.pm:our $VERSION = sprintf "%d.%03d",q$Revision: 1.11 $ =~ /(\d+)\.(\d+)/;
distros/P/PPM-Profile/bin/ppmprofile.pl:our $VERSION = join('.', 1, q$Revision: #3 $ =~ /#(\d+)/);
distros/W/Wx-Perl-Throbber/demo/throbber.pl:$VERSION = sprintf'%d.%02d', q$Revision: 1.1 $ =~ /: (\d+)\.(\d+)/;
distros/W/WWW-Search-Rambler/t/www-search-rambler.t:our $VERSION = (qw$Revision: 1.1 $)[1];
distros/W/WWW-Amazon-Wishlist/Programs/amazonwish:$VERSION = do { my @r = (q$Revision: 2.6 $ =~ /\d+/g); sprintf "%d."."%03d" x $#r, @r };
distros/P/Prospect/Prospect/Exceptions.pm:$VERSION = sprintf( "%d.%02d", q$Revision: 1.11 $ =~ /(\d+)\.(\d+)/ );
distros/P/Prospect/Prospect/ThreadSummary.pm:$VERSION = sprintf( "%d.%02d", q$Revision: 1.14 $ =~ /(\d+)\.(\d+)/ );
distros/P/Prospect/Prospect/Align.pm:$VERSION = sprintf( "%d.%02d", q$Revision: 1.14 $ =~ /(\d+)\.(\d+)/ );
distros/P/Prospect/Prospect/Options.pm:$VERSION = sprintf( "%d.%02d", q$Revision: 1.8 $ =~ /(\d+)\.(\d+)/ );
distros/P/Prospect/Prospect/LocalClient.pm:$VERSION = sprintf( "%d.%02d", q$Revision: 1.30 $ =~ /(\d+)\.(\d+)/ );
distros/P/Prospect/Prospect/File.pm:$VERSION = sprintf( "%d.%02d", q$Revision: 1.14 $ =~ /(\d+)\.(\d+)/ );
distros/P/Prospect/Prospect/SoapServer.pm:$VERSION = sprintf( "%d.%02d", q$Revision: 1.9 $ =~ /(\d+)\.(\d+)/ );
distros/P/Prospect/Prospect/Client.pm:$VERSION = sprintf( "%d.%02d", q$Revision: 1.15 $ =~ /(\d+)\.(\d+)/ );
distros/P/Prospect/Prospect/utilities.pm:$VERSION = sprintf( "%d.%02d", q$Revision: 1.9 $ =~ /(\d+)\.(\d+)/ );
distros/P/Prospect/Prospect/Init.pm:$VERSION = sprintf( "%d.%02d", q$Revision: 1.9 $ =~ /(\d+)\.(\d+)/ );
distros/P/Prospect/Prospect/Thread.pm:$VERSION = sprintf( "%d.%02d", q$Revision: 1.26 $ =~ /(\d+)\.(\d+)/ );
distros/P/Prospect/Prospect/SoapClient.pm:$VERSION = sprintf( "%d.%02d", q$Revision: 1.11 $ =~ /(\d+)\.(\d+)/ );
distros/P/Prospect/t/LocalClient.t:$VERSION = sprintf( "%d.%02d", q$Revision: 1.2 $ =~ /(\d+)\.(\d+)/ );
distros/P/Prospect/samples/LocalClient.pl:$VERSION = sprintf( "%d.%02d", q$Revision: 1.11 $ =~ /(\d+)\.(\d+)/ );
distros/P/Prospect/samples/ThreadSummary.pl:$VERSION = sprintf( "%d.%02d", q$Revision: 1.7 $ =~ /(\d+)\.(\d+)/ );
distros/P/Prospect/samples/Exception.pl:$VERSION = sprintf( "%d.%02d", q$Revision: 1.6 $ =~ /(\d+)\.(\d+)/ );
distros/P/Prospect/samples/Align.pl:$VERSION = sprintf( "%d.%02d", q$Revision: 1.6 $ =~ /(\d+)\.(\d+)/ );
distros/P/Prospect/samples/File.pl:$VERSION = sprintf( "%d.%02d", q$Revision: 1.6 $ =~ /(\d+)\.(\d+)/ );
distros/P/Prospect/samples/Client.pl:$VERSION = sprintf( "%d.%02d", q$Revision: 1.7 $ =~ /(\d+)\.(\d+)/ );
distros/P/Prospect/samples/SoapClient.pl:$VERSION = sprintf( "%d.%02d", q$Revision: 1.5 $ =~ /(\d+)\.(\d+)/ );
distros/P/Prospect/samples/Thread.pl:$VERSION = sprintf( "%d.%02d", q$Revision: 1.8 $ =~ /(\d+)\.(\d+)/ );
distros/P/Parse-PMFile/t/77_qv_without_our.t:  print $fh 'use version; $Parse::PMFile::Test::VERSION = qv("v0.0.1");',"\n";
distros/P/Parse-PMFile/t/35_scoped_our_version.t:print $fh '{ our $VERSION = "0.01"; }', "\n";
distros/P/Parse-PMFile/t/70_vpp.t:  print $fh 'use version; our $VERSION = version->declare("v0.0.1");',"\n";
distros/P/Parse-PMFile/t/36_long_version.t:print $fh '{ our $VERSION = "0.000000000000001"; }', "\n";
distros/P/Parse-PMFile/t/75_vpp_without_our.t:  print $fh 'use version; $Parse::PMFile::Test::VERSION = version->declare("v0.0.1");',"\n";
distros/P/Parse-PMFile/t/30_multiple_equals.t:our $VERSION = sprintf("%d.%02d", q$Revision: 1.12 $=~/(\d+)\.(\d+)/);
distros/P/Parse-PMFile/t/71_qv.t:  print $fh 'use version; our $VERSION = qv("v0.0.1");',"\n";
distros/W/Win32-CommandLine/extras/digest-md5.pl:use version qw(); our $VERSION; { my $defaultVERSION = '0.1.0'; my $generate_alphas = 0; $VERSION = ( $defaultVERSION, qw( $Version$ ))[-2]; if ($generate_alphas) { $VERSION =~ /(\d+)\.(\d+)\.(\d+)(?:\.)?(.*)/; $VERSION = $1.'.'.$2.((!$4&&($2%2))?'_':'.').$3.($4?((($2%2)?'_':'.').$4):q{}); $VERSION = version::qv( $VERSION ); }; } ## no critic ( ProhibitCallsToUnexportedSubs ProhibitCaptureWithoutTest ProhibitNoisyQuotes ProhibitMixedCaseVars ProhibitMagicNumbers)
distros/W/Win32-CommandLine/extras/quote.bat:use version qw(); our $VERSION; { my $defaultVERSION = '0.1.0'; my $generate_alphas = 0; $VERSION = ( $defaultVERSION, qw( $Version: 0.3.3.179015 $ ))[-2]; if ($generate_alphas) { $VERSION =~ /(\d+)\.(\d+)\.(\d+)(?:\.)?(.*)/; $VERSION = $1.'.'.$2.((!$4&&($2%2))?'_':'.').$3.($4?((($2%2)?'_':'.').$4):q{}); $VERSION = version::qv( $VERSION ); }; } ## no critic ( ProhibitCallsToUnexportedSubs ProhibitCaptureWithoutTest ProhibitNoisyQuotes ProhibitMixedCaseVars ProhibitMagicNumbers)
distros/W/Win32-CommandLine/extras/dosify.bat:use version qw(); our $VERSION; { my $defaultVERSION = '0.1.0'; my $generate_alphas = 0; $VERSION = ( $defaultVERSION, qw( $Version: 0.3.3.179015 $ ))[-2]; if ($generate_alphas) { $VERSION =~ /(\d+)\.(\d+)\.(\d+)(?:\.)?(.*)/; $VERSION = $1.'.'.$2.((!$4&&($2%2))?'_':'.').$3.($4?((($2%2)?'_':'.').$4):q{}); $VERSION = version::qv( $VERSION ); }; } ## no critic ( ProhibitCallsToUnexportedSubs ProhibitCaptureWithoutTest ProhibitNoisyQuotes ProhibitMixedCaseVars ProhibitMagicNumbers)
distros/W/Win32-CommandLine/extras/which.pl:use version qw(); our $VERSION; { my $defaultVERSION = '0.1.0'; my $generate_alphas = 0; $VERSION = ( $defaultVERSION, qw( $Version$ ))[-2]; if ($generate_alphas) { $VERSION =~ /(\d+)\.(\d+)\.(\d+)(?:\.)?(.*)/; $VERSION = $1.'.'.$2.((!$4&&($2%2))?'_':'.').$3.($4?((($2%2)?'_':'.').$4):q{}); $VERSION = version::qv( $VERSION ); }; } ## no critic ( ProhibitCallsToUnexportedSubs ProhibitCaptureWithoutTest ProhibitNoisyQuotes ProhibitMixedCaseVars ProhibitMagicNumbers)
distros/P/PerlBean/lib/PerlBean.pm:our ($VERSION) = '$Revision: 1.0 $' =~ /\$Revision:\s+([^\s]+)/;
distros/D/Devel-Symdump/t/recur.t:  $::Meta::VERSION = $VERSION = 0; # autovivify for perl >= @26370
distros/D/Dist-Zilla-PluginBundle-Author-ETHER/t/01-pluginbundle-basic.t:isnt(index($main_module, q{our $VERSION = '0.005';}), -1, '$VERSION was rewritten in module');
distros/P/Paranoid/lib/Paranoid.pm:($VERSION) = ( q$Revision: 2.07 $ =~ /(\d+(?:\.\d+)+)/sm );
distros/W/WAIT/lib/WAIT.pm:$VERSION = sprintf '%5.3f', (18 * 100 + (1-1))/1000;
distros/P/PlotCalendar/PlotCalendar/DateTools.pm:$VERSION = sprintf "%d.%02d", q$Revision: 1.0 $ =~ m#(\d+)\.(\d+)#;
distros/P/PlotCalendar/PlotCalendar/Day.pm:$VERSION = sprintf "%d.%02d", q$Revision: 1.1 $ =~ m#(\d+)\.(\d+)#;
distros/P/PlotCalendar/PlotCalendar/Month.pm:$VERSION = sprintf "%d.%02d", q$Revision: 1.1 $ =~ m#(\d+)\.(\d+)#;
distros/P/PlotCalendar/PlotCalendar/DateDesc.pm:$VERSION = sprintf "%d.%02d", q$Revision: 1.0 $ =~ m#(\d+)\.(\d+)#;
distros/C/Carp/t/broken_univ_can.t:BEGIN { $UNIVERSAL::can::VERSION = 0xbaff1ed_bee; }
distros/P/Panotools-Script/bin/ptscluster:our $VERSION = "0.0.2 (using Panotools::Script $Panotools::Script::VERSION)";
distros/P/Panotools-Script/bin/ptsed:our $VERSION = "0.0.2 (using Panotools::Script $Panotools::Script::VERSION)";
distros/P/POD2-IT/IT/perlfunc.pod:    our $VERSION : unique = "1.00";
distros/P/Pod-Xhtml/t/Test_LinkParser.pm:$VERSION = ('$Revision: 1.5 $' =~ /([\d\.]+)/)[0];
distros/P/PerlPoint-Package/demo/pp2tree:$VERSION=$VERSION=0.07;
distros/P/PerlPoint-Package/demo/pp2pp:$VERSION=$VERSION=0.04;
distros/P/PerlPoint-Package/demo/perlpoint:$VERSION=$VERSION=0.03;
distros/P/PerlPoint-Package/demo/pp2sdf:$VERSION=$VERSION=0.12;
distros/P/PerlPoint-Package/demo/pp2pod:$VERSION=$VERSION=0.07;
distros/P/PerlPoint-Package/demo/pp2ppresenter:$VERSION=$VERSION=0.01;
distros/P/POE-Component-DBIAgent/DBIAgent/Queue.pm:$VERSION = sprintf("%d.%02d", q$Revision: 0.02 $ =~ /(\d+)\.(\d+)/);
distros/P/POE-Component-DBIAgent/DBIAgent/Helper.pm:$VERSION = sprintf("%d.%02d", q$Revision: 0.03 $ =~ /(\d+)\.(\d+)/);
distros/M/MMM-OracleDump/scripts/oracle_dump.pl:$VERSION = "1,0";
distros/D/Data-Locations/t/00____version.t:$Data::Locations::VERSION = $Data::Locations::VERSION = 0;
distros/C/CursesApplication/example/file.pl:($VERSION) = (q$Revision: 0.1 $ =~ /(\d+(?:\.(\d+))+)/) || '0.1';
distros/P/PurpleWiki/PurpleWiki/User.pm:$VERSION = sprintf("%d", q$Id: User.pm 463 2004-08-09 01:31:48Z cdent $ =~ /\s(\d+)\s/);
distros/P/PurpleWiki/PurpleWiki/ACL.pm:$VERSION = sprintf("%d", q$Id: ACL.pm 464 2004-08-09 01:38:51Z cdent $ =~ /\s(\d+)\s/);
distros/P/PurpleWiki/PurpleWiki/Tree.pm:$VERSION = sprintf("%d", q$Id: Tree.pm 385 2004-06-02 08:39:02Z matthew $ =~ /\s(\d+)\s/);
distros/P/PurpleWiki/PurpleWiki/Transclusion.pm:$VERSION = sprintf("%d", q$Id: Transclusion.pm 397 2004-06-16 19:01:10Z cdent $ =~ /\s(\d+)\s/);
distros/P/PurpleWiki/PurpleWiki/Apache2Handler.pm:$VERSION = sprintf("%d", q$Id: Apache2Handler.pm 463 2004-08-09 01:31:48Z cdent $ =~ /\s(\d+)\s/);
distros/P/PurpleWiki/PurpleWiki/Page.pm:$VERSION = sprintf("%d", q$Id: Page.pm 444 2004-08-05 08:14:37Z eekim $ =~ /\s(\d+)\s/);
distros/P/PurpleWiki/PurpleWiki/InlineNode.pm:$VERSION = sprintf("%d", q$Id: InlineNode.pm 352 2004-05-08 22:00:33Z cdent $ =~ /\s(\d+)\s/);
distros/P/PurpleWiki/PurpleWiki/Sequence.pm:$VERSION = sprintf("%d", q$Id: Sequence.pm 352 2004-05-08 22:00:33Z cdent $ =~ /\s(\d+)\s/);
distros/P/PurpleWiki/PurpleWiki/NidHandler.pm:$VERSION = sprintf("%d", q$Id: NidHandler.pm 465 2004-08-09 02:00:02Z cdent $ =~ /\s(\d+)\s/);
distros/P/PurpleWiki/PurpleWiki/Apache1Handler.pm:$VERSION = sprintf("%d", q$Id: Apache1Handler.pm 465 2004-08-09 02:00:02Z cdent $ =~ /\s(\d+)\s/);
distros/P/PurpleWiki/PurpleWiki/Database.pm:$VERSION = sprintf("%d", q$Id: Database.pm 448 2004-08-06 11:25:09Z eekim $ =~ /\s(\d+)\s/);
distros/P/PurpleWiki/PurpleWiki/Config.pm:$VERSION = sprintf("%d", q$Id: Config.pm 469 2004-08-09 05:08:03Z eekim $ =~ /\s(\d+)\s/);
distros/P/PurpleWiki/PurpleWiki/StructuralNode.pm:$VERSION = sprintf("%d", q$Id: StructuralNode.pm 352 2004-05-08 22:00:33Z cdent $ =~ /\s(\d+)\s/);
distros/C/Cache-Memcached-Managed/t/020grab.t:$Foo::VERSION = 'Foo::VERSION';
distros/C/Cache-Memcached-Managed/t/001basic.t:$VERSION      = 'main::VERSION';
distros/M/MooseX-AttributeCloner/t/00-critic.t:our $VERSION = do { my @r = (q$LastChangedRevision: 5780 $ =~ /\d+/mxg); sprintf '%d.'.'%03d' x $#r, @r };
distros/M/MooseX-AttributeCloner/t/00-pod.t:our $VERSION = do { my @r = (q$LastChangedRevision: 5780 $ =~ /\d+/mxg); sprintf '%d.'.'%03d' x $#r, @r };
distros/M/MooseX-AttributeCloner/t/00-distribution.t:our $VERSION = do { my @r = (q$LastChangedRevision: 5780 $ =~ /\d+/mxg); sprintf '%d.'.'%03d' x $#r, @r };
distros/P/Perl-Dist-WiX/share/update_env.pl.bat:our $STRING_VERSION = our $VERSION = '1.001';
distros/P/Perl-Dist-WiX/share/relocation.pl.bat:our $STRING_VERSION = our $VERSION = '1.002';
distros/D/DBD-Solid/Const/Const.pm:$VERSION = '0.20a';
distros/M/Module-Extract-VERSION/corpus/RCSKeywords.pm:$VERSION = sprintf "%d.%02d", q$Revision: 1.23$ =~ m/(\d+)/g;
distros/P/Perl-Repository-APC/scripts/perlpatch2svn:our $VERSION = sprintf "%.3f", 1 + substr(q$Rev: 135 $,4)/1000;
distros/M/Mail-Abuse/bin/abuso:our $VERSION = do { my @r = (q$Revision: 1.8 $ =~ /\d+/g); sprintf " %d."."%03d" x $#r, @r };
distros/M/Mail-Abuse/bin/acat:our $VERSION = do { my @r = (q$Revision: 1.15 $ =~ /\d+/g); sprintf " %d."."%03d" x $#r, @r };
distros/M/Mail-Abuse/bin/maps-scan:our $VERSION = do { my @r = (q$Revision: 1.3 $ =~ /\d+/g); sprintf " %d."."%03d" x $#r, @r };
distros/M/Mail-Abuse/bin/popfetch:our $VERSION = do { my @r = (q$Revision: 1.2 $ =~ /\d+/g); sprintf " %d."."%03d" x $#r, @r };
distros/M/Mail-Abuse/bin/google-gather:our $VERSION = do { my @r = (q$Revision: 1.5 $ =~ /\d+/g); sprintf " %d."."%03d" x $#r, @r };
distros/M/Mail-Abuse/bin/requester:our $VERSION = do { my @r = (q$Revision: 1.4 $ =~ /\d+/g); sprintf " %d."."%03d" x $#r, @r };
distros/M/Mail-Abuse/bin/spews-scan:our $VERSION = do { my @r = (q$Revision: 1.2 $ =~ /\d+/g); sprintf " %d."."%03d" x $#r, @r };
distros/M/Mail-Abuse/bin/scan:our $VERSION = do { my @r = (q$Revision: 1.13 $ =~ /\d+/g); sprintf " %d."."%03d" x $#r, @r };
distros/M/Mail-Abuse/bin/maps-gather:our $VERSION = do { my @r = (q$Revision: 1.6 $ =~ /\d+/g); sprintf " %d."."%03d" x $#r, @r };
distros/M/Mail-Abuse/contrib/serial2plain:our $VERSION = do { my @r = (q$Revision: 1.1 $ =~ /\d+/g); sprintf " %d."."%03d" x $#r, @r };
distros/t/types/lib/types.pm:$VERSION = do { my @r = (q$Revision: 1.5 $ =~ /\d+/g); $r[0] = 0; sprintf "%d."."%02d" x $#r, @r }; # must be all one line, for MakeMaker
distros/t/tkShortcuts/lib/tkShortcuts.pm:our $VERSION = "1.00a"; 
distros/t/tk-zinc/t/TestLog.pm:($VERSION) = sprintf("%d.%02d", q$Revision: 1.4 $ =~ /(\d+)\.(\d+)/);
distros/t/tk-zinc/Zinc/TraceErrors.pm:($VERSION) = sprintf("%d.%02d", q$Revision: 1.8 $ =~ /(\d+)\.(\d+)/);
distros/t/tk-zinc/Zinc/Trace.pm:($VERSION) = sprintf("%d.%02d", q$Revision: 1.13 $ =~ /(\d+)\.(\d+)/);
distros/t/tk-zinc/Zinc/Logo.pm:($VERSION) = sprintf("%d.%02d", q$Revision: 1.6 $ =~ /(\d+)\.(\d+)/);
distros/t/tk-zinc/Zinc/Text.pm:($VERSION) = sprintf("%d.%02d", q$Revision: 1.2 $ =~ /(\d+)\.(\d+)/);
distros/t/tk-zinc/Zinc/TraceUtils.pm:($VERSION) = sprintf("%d.%02d", q$Revision: 1.7 $ =~ /(\d+)\.(\d+)/);
distros/t/tk-zinc/demos/zinc-demos:($VERSION) = sprintf("%d.%02d", q$Revision: 1.27 $ =~ /(\d+)\.(\d+)/);
distros/t/tk-zinc/Zinc/Debug.pm:($VERSION) = sprintf("%d.%02d", q$Revision: 1.58 $ =~ /(\d+)\.(\d+)/);
distros/t/tk-zinc/Zinc/Graphics.pm:($VERSION) = sprintf("%d.%02d", q$Revision: 1.12 $ =~ /(\d+)\.(\d+)/);
distros/t/thanks/lib/thanks.pm:	$thanks::VERSION   = '0.005'        unless $thanks::VERSION;
distros/C/CursesWidgets/Widgets/ComboBox.pm:($VERSION) = (q$Revision: 1.103 $ =~ /(\d+(?:\.(\d+))+)/);
distros/C/CursesWidgets/Widgets/ListBox.pm:($VERSION) = (q$Revision: 1.104 $ =~ /(\d+(?:\.(\d+))+)/);
distros/C/CursesWidgets/Widgets/Calendar.pm:($VERSION) = (q$Revision: 1.103 $ =~ /(\d+(?:\.(\d+))+)/);
distros/C/CursesWidgets/Widgets/Menu.pm:($VERSION) = (q$Revision: 1.103 $ =~ /(\d+(?:\.(\d+))+)/);
distros/C/CursesWidgets/Widgets/ProgressBar.pm:($VERSION) = (q$Revision: 1.103 $ =~ /(\d+(?:\.(\d+))+)/);
distros/C/CursesWidgets/Widgets/TextMemo.pm:($VERSION) = (q$Revision: 1.104 $ =~ /(\d+(?:\.(\d+))+)/);
distros/C/CursesWidgets/Widgets/Label.pm:($VERSION) = (q$Revision: 1.102 $ =~ /(\d+(?:\.(\d+))+)/);
distros/C/CursesWidgets/Widgets/ButtonSet.pm:($VERSION) = (q$Revision: 1.103 $ =~ /(\d+(?:\.(\d+))+)/);
distros/C/CursesWidgets/Widgets/TextField.pm:($VERSION) = (q$Revision: 1.103 $ =~ /(\d+(?:\.(\d+))+)/);
distros/D/Date-Pcalc/t/f000.t:$Carp::Clan::VERSION                = $Carp::Clan::VERSION                = 0;
distros/D/DBD-Unify/examples/row_counts:our $VERSION = "1.01 - 20160901";
distros/D/DBD-Unify/examples/describe.pl:our $VERSION = "0.02 - 20170914";
distros/M/MP3-Info/eg/mp3tocddb.PL:($VERSION) = q$Id: mp3tocddb.PL,v 1.2 2000/07/08 19:49:06 pudge Exp $ =~ /([\d.]{3,})/;
distros/M/ModsPragma/t/mods.t:  {$VERSION=17}
distros/D/Devel-Fail-Make/t/pod.t:$VERSION = do { my @r = (q$Revision: 1.2 $ =~ /\d+/g); sprintf "%d."."%03d" x $#r, @r };
distros/D/Devel-Fail-Make/t/pod-coverage.t:$VERSION = do { my @r = (q$Revision: 1.2 $ =~ /\d+/g); sprintf "%d."."%03d" x $#r, @r };
distros/D/Dist-Zilla-PluginBundle-Author-TABULO/t/01-pluginbundle-basic.t:isnt(index($main_module, q{our $VERSION = '0.005';}), -1, '$VERSION was rewritten in module');
distros/C/Clustericious/t/clustericious_app__auth.t:$Clustericious::VERSION //= 0.9925;
distros/C/Clustericious/t/clustericious_app__render_exception.t:$Clustericious::VERSION //= 0.9925;
distros/C/Clustericious/t/clustericious_app__render_not_found.t:$Clustericious::VERSION //= 0.9925;
distros/C/Clustericious/t/clustericious_app__subreq.t:$Clustericious::VERSION //= 0.9925;
distros/C/Clustericious/t/clustericious_app__auth_websocket.t:$Clustericious::VERSION //= 0.9925;
distros/C/Clustericious/t/clustericious_plugin_plugauth.t:$Clustericious::VERSION //= 0.9925;
distros/C/Clustericious/t/clustericious_app__basic.t:$Clustericious::VERSION //= 0.9925;
distros/D/Devel-Fail-MakeTest/t/pod-coverage.t:$VERSION = do { my @r = (q$Revision: 1.2 $ =~ /\d+/g); sprintf "%d."."%03d" x $#r, @r };
distros/s/sybperl/BCP/BCP.pm:$VERSION = substr(q$Revision: 1.7 $, 10);
distros/s/sybperl/BLK/BLK.pm:$VERSION = substr(q$Revision: 1.11 $, 10);
distros/s/svg-svg2zinc/SVG2zinc/Backend.pm:($VERSION) = sprintf("%d.%02d", q$Revision: 1.12 $ =~ /(\d+)\.(\d+)/);
distros/s/svg-svg2zinc/SVG2zinc/Conversions.pm:($VERSION) = sprintf("%d.%02d", q$Revision: 1.10 $ =~ /(\d+)\.(\d+)/);
distros/s/superclass/t/inherit.t:BEGIN { $Has::Version::VERSION = '42' }
distros/M/MetaTrans/lib/MetaTrans.pm:$VERSION   = do { my @r = (q$Revision: 1.5 $ =~ /\d+/g); sprintf "%d."."%02d", @r };
distros/X/XML-Validate/scripts/validxml.pl:($VERSION) = ('$Revision: 1.10 $' =~ /([\d\.]+)/ );
distros/X/XML-FeedLite/t/00-critic.t:our $VERSION = do { my @r = (q$Revision: 1.1 $ =~ /\d+/mxg); sprintf '%d.'.'%03d' x $#r, @r };
distros/X/XML-Filter-Essex/t/XML-Essex-Constants.t:    $threads::VERSION ||= 1;
distros/X/XAO-Indexer/IndexerSupport/IndexerSupport.pm:$VERSION=(0+sprintf('%u.%03u',(q$Id: IndexerSupport.pm,v 1.5 2005/01/14 02:56:42 am Exp $ =~ /\s(\d+)\.(\d+)\s/))) || die "Bad VERSION";
distros/C/Colloquy-Bot-Simple/examples/cpanbot.pl:$VERSION = sprintf('%d.%02d', q$Revision: 516 $ =~ /(\d+)/g);
distros/o/o2sms/bin/o2sms4w:$VERSION = sprintf("1.%02d", q$Revision: 290 $ =~ /(\d+)/);
distros/M/MLDBM/lib/MLDBM.pm:$MLDBM::Serializer::VERSION = $MLDBM::Serializer::VERSION = '2.05';
distros/M/Module-Load-Conditional/t/01_Module_Load_Conditional.t:        $A::B::C::D::VERSION = "$$";
distros/C/CursesForms/Forms/Dialog.pm:$VERSION = (q$Revision: 0.4 $ =~ /(\d+(?:\.(\d+))+)/)[0] || '0.1';
distros/M/Module-Dependency/examples/pmd_cgidepend.plx:($VERSION) = ('$Revision: 6570 $' =~ /([\d\.]+)/ );
distros/V/Visio/Visio/Master.pm:$VERSION = sprintf "%d.%03d", q$Revision: 1.5 $ =~ /: (\d+)\.(\d+)/;
distros/V/Visio/Visio/Line.pm:$VERSION = sprintf "%d.%03d", q$Revision: 1.5 $ =~ /: (\d+)\.(\d+)/;
distros/V/Visio/Visio/Page.pm:$VERSION = sprintf "%d.%03d", q$Revision: 1.8 $ =~ /: (\d+)\.(\d+)/;
distros/V/Visio/Visio/Hyperlink.pm:$VERSION = sprintf "%d.%03d", q$Revision: 1.5 $ =~ /: (\d+)\.(\d+)/;
distros/V/Visio/Visio/Layout.pm:$VERSION = sprintf "%d.%03d", q$Revision: 1.5 $ =~ /: (\d+)\.(\d+)/;
distros/V/Visio/Visio/PageSheet.pm:$VERSION = sprintf "%d.%03d", q$Revision: 1.5 $ =~ /: (\d+)\.(\d+)/;
distros/V/Visio/Visio/Shape.pm:$VERSION = sprintf "%d.%03d", q$Revision: 1.9 $ =~ /: (\d+)\.(\d+)/;
distros/V/Visio/Visio/PageProps.pm:$VERSION = sprintf "%d.%03d", q$Revision: 1.5 $ =~ /: (\d+)\.(\d+)/;
distros/V/VelocisSQL/SQL/SQL.pm:$VERSION = 0.0 + substr(q$Revision: 1.3 $, 10);
distros/M/Math-LP-Solve/contrib/add_pm_version_number.pl:$VERSION = sprintf('%d.%02d', q{ $Revision: 1.2 $ } =~ /(\d+)\.(\d+)/);
distros/M/Math-LP-Solve/contrib/export_swigged_symbols.pl:$VERSION = sprintf('%d.%02d', q{ $Revision: 1.5 $ } =~ /(\d+)\.(\d+)/);
distros/M/Module-PortablePath/t/00-critic.t:our $VERSION = do { my @r = (q$Revision: 207 $ =~ /\d+/mxg); sprintf '%d.'.'%03d' x $#r, @r };
distros/M/Message-Style/t/use.t:$VERSION = do { my @r=(q$Revision: 1.1 $=~/\d+/g); sprintf "%d."."%03d"x$#r,@r };
distros/C/CGI-Cache/t/stop.t:$VERSION = sprintf "%d.%02d%02d", q/0.10.0/ =~ /(\d+)/g;
distros/C/CGI-Cache/t/speed.pl:$VERSION = sprintf "%d.%02d%02d", q/0.10.2/ =~ /(\d+)/g;
distros/C/CGI-Cache/t/non-caching.t:$VERSION = sprintf "%d.%02d%02d", q/0.10.0/ =~ /(\d+)/g;
distros/C/CGI-Cache/t/disabled_ouput.t:$VERSION = sprintf "%d.%02d%02d", q/0.10.0/ =~ /(\d+)/g;
distros/C/CGI-Cache/t/user_specified_filehandle.t:$VERSION = sprintf "%d.%02d%02d", q/0.10.0/ =~ /(\d+)/g;
distros/C/CGI-Cache/t/buffer.t:$VERSION = sprintf "%d.%02d%02d", q/0.10.0/ =~ /(\d+)/g;
distros/C/CGI-Cache/t/cgi_carp.t:$VERSION = sprintf "%d.%02d%02d", q/0.10.0/ =~ /(\d+)/g;
distros/C/CGI-Cache/t/basic.t:$VERSION = sprintf "%d.%02d%02d", q/0.10.0/ =~ /(\d+)/g;
distros/C/CGI-Cache/t/pause_continue.t:$VERSION = sprintf "%d.%02d%02d", q/0.10.0/ =~ /(\d+)/g;
distros/C/CGI-Cache/t/invalidate_cache_entry.t:$VERSION = sprintf "%d.%02d%02d", q/0.10.0/ =~ /(\d+)/g;
distros/D/DBomb/DBomb/Util.pm:our $VERSION = '$Revision: 1.4 $';
distros/D/DBomb/DBomb/GluedUpdate.pm:our $VERSION = '$Revision: 1.11 $';
distros/D/DBomb/DBomb/Query.pm:our $VERSION = '$Revision: 1.22 $';
distros/D/DBomb/DBomb/GluedQuery.pm:our $VERSION = '$Revision: 1.13 $';
distros/D/DBomb/DBomb/Value.pm:our $VERSION = '$Revision: 1.2 $';
distros/D/DBomb/DBomb/Generator.pm:our $VERSION = '$Revision: 1.4 $';
distros/D/DBomb/DBomb/Base.pm:our $VERSION = '$Revision: 1.27 $';
distros/M/Metabase-Client-Simple/t/client.t:$Metabase::Client::Simple::VERSION ||= "0.123456"; # for prove in repo dir
distros/M/Mail-SpamCannibal/DNSBLserver/DNSBLserver.pm:$VERSION = do { q|char version[] = "dnsbls 0.55, 1-27-14";| =~ /(\d+)\.(\d+)/; sprintf("%d.%02d",$1,$2)};
distros/M/Mail-SpamCannibal/BDBaccess/BDBaccess.pm:$VERSION = do { q|char version[] = "bdbaccess 0.25, 1-14-14";| =~ /(\d+)\.(\d+)/; sprintf("%d.%02d",$1,$2)};
distros/C/CGI-Session-Auth/Auth/DBI.pm:our $VERSION = do { q$Revision: 25 $ =~ /Revision: (\d+)/; sprintf "1.%03d", $1; };
distros/C/CGI-Session-Auth/Auth/File.pm:our $VERSION = do { q$Revision: 11 $ =~ /Revision: (\d+)/; sprintf "1.%03d", $1; };
distros/D/Devel-Fail-MakefilePL/t/pod-coverage.t:$VERSION = do { my @r = (q$Revision: 1.1 $ =~ /\d+/g); sprintf "%d."."%03d" x $#r, @r };
distros/C/ClearPress/cgi-bin/logout:our $VERSION = do { my ($r) = q$Revision: 348 $ =~ /(\d+)/smx; $r; };
distros/D/Dist-Metadata/t/load_meta.t:$Dist::Metadata::VERSION ||= 0; # quiet warnings
distros/D/Dist-Metadata/t/determine.t:$Dist::Metadata::VERSION ||= 0; # avoid undef warnings
distros/D/Dist-Metadata/t/dists.t:$Dist::Metadata::VERSION ||= 0; # quiet warnings
distros/D/Dist-Metadata/t/no_index.t:$Dist::Metadata::VERSION ||= 0; # quiet warnings
distros/D/Date-Calc/t/f000.t:$Carp::Clan::VERSION               = $Carp::Clan::VERSION               = 0;
distros/C/CGISession/Session/Session.pm:$VERSION = '0.9c';
distros/M/Msql-Mysql-modules/nodbd/statement.pm.in:$VERSION = '~~nodbd_version~~';
distros/M/Msql-Mysql-modules/dbd/bundle.pm.in:$VERSION = '~~dbd_version~~';
distros/M/Msql-Mysql-modules/nodbd/nodbd.pm.in:$VERSION = '~~nodbd_version~~';
distros/M/Msql-Mysql-modules/dbd/dbd.pm.in:$VERSION = '~~dbd_version~~';
distros/D/Daemonise/lib/Daemonise.pm:our $VERSION = '1.0-1';
distros/M/Mrequire/lib/Mrequire.pm:'$Name: release_0_6 $ 0_0' =~ /(\d+)[-_](\d+)/; $VERSION = sprintf '%d.%03d', $1, $2;
distros/M/Modern-Perl/t/regressions.t:    $Modern::Perl::VERSION ||= '1.20121103';
distros/D/Date-Calc-XS/t/f000.t:$Carp::Clan::VERSION               = $Carp::Clan::VERSION               = 0;
distros/M/Module-Provision/share/perl_module.pm:use version; our $VERSION = qv( sprintf '0.1.%d', q$Rev: 1 $ =~ /\d+/gmx );
distros/Z/Zilla-Dist/share/alias.pm:our $VERSION = '[% version %]';
distros/S/SNMP-Server/t/use.t:$VERSION = do { my @r=(q$Revision: 35 $=~/\d+/g); sprintf "%d."."%03d"x$#r,@r };
distros/T/Test-MockModule/t/define.t:BEGIN { $VERSION = 1 }
distros/T/Test-MockModule/t/mock_strict.t:BEGIN { $VERSION = 1 }
distros/T/Test-MockModule/t/redefine.t:BEGIN { $VERSION = 1 };
distros/T/Test-MockModule/t/chaining.t:BEGIN { $VERSION = 1 }
distros/S/Search-Circa/demo/CircaConf.PL:$VERSION = ('$Revision: 1.3 $ ' =~ /(\d+\.\d+)/)[0];
distros/T/Test-HTML-Content/t/testlib.pm:  eval { require XML::XPath; $XML::XPath::VERSION >= 1.13 and $modules{xpath} = \&run_xpath };
distros/T/Term-ReadLine-Perl/ReadLine/Perl.pm:$VERSION = $VERSION = 1.0303;
distros/T/Term-ReadLine-Perl/ReadLine/readline.pm:$VERSION = $VERSION = '1.0303';
distros/D/Date-Handler/Handler/Test.pm:$VERSION = sprintf '%d.%03d', q$Revision: 1.13 $ =~ /: (\d+).(\d+)/;
distros/T/Tk-Wizard-Sizer/t/pod-coverage.t:$VERSION = do { my @r = (q$Revision: 1.1.1.1 $ =~ /\d+/g); sprintf "%d."."%03d" x $#r, @r };
distros/S/System-Info/examples/sysinfo.pl:our $VERSION = "0.051 - 20190711";
distros/c/cvswebedit/docs/README.cgi-diffs.txt:$CGI::Carp::VERSION = '1.10';				      |	$CGI::Carp::VERSION = '1.06';
distros/c/cvswebedit/docs/README.cgilibs.txt:$CGI::Carp::VERSION = '1.10';				      |	$CGI::Carp::VERSION = '1.06';
distros/T/Text-CSV_XS/examples/rewrite.pl:our $VERSION = "0.05 - 20170920";
distros/T/Text-CSV_XS/examples/csvdiff:our $VERSION = "1.02 - 20190305";
distros/T/Text-CSV_XS/err-csv/check.pl:our $VERSION = "0.01 - 20200130";
distros/D/Data-Dumper-EasyOO/t/speed.t:$Benchmark::VERSION ||= 0; # supress undef warnings
distros/d/dotReader/lib/dtRdr.pm:$VERSION = eval{require version}?version::qv($_):$_ for(0.11.2);
distros/S/Scraper/eg/Scraper.pl:$VERSION = sprintf("%d.%02d", q$Revision: 1.12 $ =~ /(\d+)\.(\d+)/);
distros/S/Scraper/eg/GetTidyXmlResults.pl:$VERSION = sprintf("%d.%02d", q$Revision: 1.2 $ =~ /(\d+)\.(\d+)/);
distros/S/Scraper/eg/setupLocations.pl:$VERSION = sprintf("%d.%02d", q$Revision: 1.0 $ =~ /(\d+)\.(\d+)/);
distros/S/Scraper/eg/WSDL.pl:$VERSION = sprintf("%d.%02d", q$Revision: 1.2 $ =~ /(\d+)\.(\d+)/);
distros/S/Solstice/lib/Solstice.pm:our ($VERSION) = ('$Revision: 1440 $' =~ /^\$Revision:\s*([\d.]*)/);
distros/v/version/t/coretests.pm:	$_112478::VERSION = 9e99;
distros/T/Text-MetaText/MetaText/Directive.pm:$VERSION = sprintf("%d.%02d", q$Revision: 0.4 $ =~ /(\d+)\.(\d+)/);
distros/T/Text-MetaText/MetaText/Factory.pm:$VERSION    = sprintf("%d.%02d", q$Revision: 0.2 $ =~ /(\d+)\.(\d+)/);
distros/S/SPOPS/SPOPS/Utility.pm:$SPOPS::Utility::VERSION  = sprintf("%d.%02d", q$Revision: 3.5 $ =~ /(\d+)\.(\d+)/);
distros/S/SPOPS/SPOPS/GDBM.pm:$SPOPS::GDBM::VERSION = sprintf("%d.%02d", q$Revision: 3.4 $ =~ /(\d+)\.(\d+)/);
distros/S/SPOPS/SPOPS/SQLInterface.pm:$SPOPS::SQLInterface::VERSION = sprintf("%d.%02d", q$Revision: 3.12 $ =~ /(\d+)\.(\d+)/);
distros/S/SPOPS/SPOPS/Tie.pm:$SPOPS::Tie::VERSION   = sprintf("%d.%02d", q$Revision: 3.8 $ =~ /(\d+)\.(\d+)/);
distros/S/SPOPS/SPOPS/Error.pm:$SPOPS::Error::VERSION  = sprintf("%d.%02d", q$Revision: 3.3 $ =~ /(\d+)\.(\d+)/);
distros/S/SPOPS/SPOPS/Iterator.pm:$SPOPS::Iterator::VERSION   = sprintf("%d.%02d", q$Revision: 3.4 $ =~ /(\d+)\.(\d+)/);
distros/S/SPOPS/SPOPS/Exception.pm:$SPOPS::Exception::VERSION   = sprintf("%d.%02d", q$Revision: 3.5 $ =~ /(\d+)\.(\d+)/);
distros/S/SPOPS/SPOPS/Initialize.pm:$SPOPS::Initialize::VERSION = sprintf("%d.%02d", q$Revision: 3.4 $ =~ /(\d+)\.(\d+)/);
distros/S/SPOPS/SPOPS/Export.pm:$SPOPS::Export::VERSION  = sprintf("%d.%02d", q$Revision: 3.4 $ =~ /(\d+)\.(\d+)/);
distros/S/SPOPS/SPOPS/Loopback.pm:$SPOPS::Loopback::VERSION  = sprintf("%d.%02d", q$Revision: 3.11 $ =~ /(\d+)\.(\d+)/);
distros/S/SPOPS/SPOPS/LDAP.pm:$SPOPS::LDAP::VERSION   = sprintf("%d.%02d", q$Revision: 3.4 $ =~ /(\d+)\.(\d+)/);
distros/S/SPOPS/SPOPS/DBI.pm:$SPOPS::DBI::VERSION = sprintf("%d.%02d", q$Revision: 3.23 $ =~ /(\d+)\.(\d+)/);
distros/S/SPOPS/SPOPS/Secure.pm:$SPOPS::Secure::VERSION  = sprintf("%d.%02d", q$Revision: 3.14 $ =~ /(\d+)\.(\d+)/);
distros/S/SPOPS/SPOPS/HashFile.pm:$SPOPS::HashFile::VERSION  = sprintf("%d.%02d", q$Revision: 3.4 $ =~ /(\d+)\.(\d+)/);
distros/S/SPOPS/SPOPS/Import.pm:$SPOPS::Import::VERSION  = sprintf("%d.%02d", q$Revision: 3.8 $ =~ /(\d+)\.(\d+)/);
distros/S/SPOPS/SPOPS/ClassFactory.pm:$SPOPS::ClassFactory::VERSION   = sprintf("%d.%02d", q$Revision: 3.6 $ =~ /(\d+)\.(\d+)/);
distros/S/Squatting/lib/squatting.pl:use Carp;our$VERSION='0.60';sub import{my$m=shift;my$p=(caller)[0];my$app=$p;
distros/O/OWNet/lib/OWNet.pm:our $VERSION=(split(/ /,q[$Revision: 1.8 $]))[1] ;
distros/T/Tk-Wizard/t/140_Win32.t:our $VERSION = do { my @r = ( q$Revision: 1.9 $ =~ /\d+/g ); sprintf "%d." . "%03d" x $#r, @r };
distros/T/Tk-Wizard/t/020_pod.t:	$VERSION = do { my @r = ( q$Revision: 1.2 $ =~ /\d+/g ); sprintf "%d." . "%03d" x $#r, @r };
distros/T/Tk-Wizard/t/WizTestSettings.pm:	$VERSION = do { my @r = ( q$Revision: 2.084 $ =~ /\d+/g ); sprintf "%d." . "%03d" x $#r, @r };
distros/O/OpenPlugin/OpenPlugin/Utility.pm:$OpenPlugin::Utility::VERSION = sprintf("%d.%02d", q$Revision: 1.7 $ =~ /(\d+)\.(\d+)/);
distros/O/OpenPlugin/OpenPlugin/Param.pm:$OpenPlugin::Param::VERSION = sprintf("%d.%02d", q$Revision: 1.16 $ =~ /(\d+)\.(\d+)/);
distros/O/OpenPlugin/OpenPlugin/HttpHeader.pm:$OpenPlugin::HttpHeader::VERSION = sprintf("%d.%02d", q$Revision: 1.21 $ =~ /(\d+)\.(\d+)/);
distros/O/OpenPlugin/OpenPlugin/Cache.pm:$OpenPlugin::Cache::VERSION = sprintf("%d.%02d", q$Revision: 1.17 $ =~ /(\d+)\.(\d+)/);
distros/O/OpenPlugin/OpenPlugin/Authenticate.pm:$OpenPlugin::Authenticate::VERSION = sprintf("%d.%02d", q$Revision: 1.17 $ =~ /(\d+)\.(\d+)/);
distros/O/OpenPlugin/OpenPlugin/Request.pm:$OpenPlugin::Request::VERSION = sprintf("%d.%02d", q$Revision: 1.7 $ =~ /(\d+)\.(\d+)/);
distros/O/OpenPlugin/OpenPlugin/Session.pm:$OpenPlugin::Session::VERSION = sprintf("%d.%02d", q$Revision: 1.46 $ =~ /(\d+)\.(\d+)/);
distros/O/OpenPlugin/OpenPlugin/Application.pm:$OpenPlugin::Application::VERSION = sprintf("%d.%02d", q$Revision: 1.30 $ =~ /(\d+)\.(\d+)/);
distros/O/OpenPlugin/OpenPlugin/Datasource.pm:$OpenPlugin::Datasource::VERSION = sprintf("%d.%02d", q$Revision: 1.20 $ =~ /(\d+)\.(\d+)/);
distros/O/OpenPlugin/OpenPlugin/Plugin.pm:$OpenPlugin::Plugin::VERSION = sprintf("%d.%02d", q$Revision: 1.22 $ =~ /(\d+)\.(\d+)/);
distros/O/OpenPlugin/OpenPlugin/Cookie.pm:$OpenPlugin::Cookie::VERSION = sprintf("%d.%02d", q$Revision: 1.25 $ =~ /(\d+)\.(\d+)/);
distros/O/OpenPlugin/OpenPlugin/Exception.pm:$OpenPlugin::Exception::VERSION = sprintf("%d.%02d", q$Revision: 1.33 $ =~ /(\d+)\.(\d+)/);
distros/O/OpenPlugin/OpenPlugin/Log.pm:$OpenPlugin::Log::VERSION = sprintf("%d.%02d", q$Revision: 1.17 $ =~ /(\d+)\.(\d+)/);
distros/O/OpenPlugin/OpenPlugin/Upload.pm:$OpenPlugin::Upload::VERSION = sprintf("%d.%02d", q$Revision: 1.13 $ =~ /(\d+)\.(\d+)/);
distros/O/OpenPlugin/OpenPlugin/Config.pm:$OpenPlugin::Config::VERSION = sprintf("%d.%02d", q$Revision: 1.28 $ =~ /(\d+)\.(\d+)/);
distros/O/OpenInteract/OpenInteract/Utility.pm:$OpenInteract::Utility::VERSION = sprintf("%d.%02d", q$Revision: 1.9 $ =~ /(\d+)\.(\d+)/);
distros/O/OpenInteract/OpenInteract/Auth.pm:$OpenInteract::Auth::VERSION = sprintf("%d.%02d", q$Revision: 1.18 $ =~ /(\d+)\.(\d+)/);
distros/O/OpenInteract/OpenInteract/SQLInstall.pm:$OpenInteract::SQLInstall::VERSION  = sprintf("%d.%02d", q$Revision: 1.22 $ =~ /(\d+)\.(\d+)/);
distros/O/OpenInteract/OpenInteract/Session.pm:$OpenInteract::Session::VERSION = sprintf("%d.%02d", q$Revision: 1.13 $ =~ /(\d+)\.(\d+)/);
distros/O/OpenInteract/OpenInteract/PackageRepository.pm:$OpenInteract::PackageRepository::VERSION   = sprintf("%d.%02d", q$Revision: 1.8 $ =~ /(\d+)\.(\d+)/);
distros/O/OpenInteract/OpenInteract/CommonHandler.pm:$OpenInteract::CommonHandler::VERSION   = sprintf("%d.%02d", q$Revision: 1.44 $ =~ /(\d+)\.(\d+)/);
distros/O/OpenInteract/OpenInteract/Request.pm:$OpenInteract::Request::VERSION = sprintf("%d.%02d", q$Revision: 1.16 $ =~ /(\d+)\.(\d+)/);
distros/O/OpenInteract/OpenInteract/Error.pm:$OpenInteract::Error::VERSION = sprintf("%d.%02d", q$Revision: 1.6 $ =~ /(\d+)\.(\d+)/);
distros/O/OpenInteract/OpenInteract/DBI.pm:$OpenInteract::DBI::VERSION  = sprintf("%d.%02d", q$Revision: 1.11 $ =~ /(\d+)\.(\d+)/);
distros/O/OpenInteract/OpenInteract/Startup.pm:$OpenInteract::Startup::VERSION = sprintf("%d.%02d", q$Revision: 1.37 $ =~ /(\d+)\.(\d+)/);
distros/O/OpenInteract/OpenInteract/SPOPS.pm:$OpenInteract::SPOPS::VERSION = sprintf("%d.%02d", q$Revision: 1.33 $ =~ /(\d+)\.(\d+)/);
distros/O/OpenInteract/OpenInteract/Package.pm:$OpenInteract::Package::VERSION   = sprintf("%d.%02d", q$Revision: 1.40 $ =~ /(\d+)\.(\d+)/);
distros/O/OpenInteract/OpenInteract/Component.pm:$OpenInteract::Component::VERSION = sprintf("%d.%02d", q$Revision: 2.16 $ =~ /(\d+)\.(\d+)/);
distros/O/OpenInteract/OpenInteract/LDAP.pm:$OpenInteract::LDAP::VERSION  = sprintf("%d.%02d", q$Revision: 1.6 $ =~ /(\d+)\.(\d+)/);
distros/O/OpenInteract/OpenInteract/Config.pm:$OpenInteract::Config::VERSION   = sprintf("%d.%02d", q$Revision: 1.7 $ =~ /(\d+)\.(\d+)/);
distros/O/OpenInteract/OpenInteract/ApacheStartup.pm:$OpenInteract::ApacheStartup::VERSION   = sprintf("%d.%02d", q$Revision: 1.26 $ =~ /(\d+)\.(\d+)/);
distros/O/OpenInteract/conf/sample-Stash.pm:$OpenInteract::SampleStash::VERSION = sprintf("%d.%02d", q$Revision: 1.3 $ =~ /(\d+)\.(\d+)/);
distros/O/OpenCA-Crypto/Token/Empty.pm:($OpenCA::Token::Empty::VERSION = '$Revision: 1.2 $' )=~ s/(?:^.*: (\d+))|(?:\s+\$$)/defined $1?"0\.9":""/eg;
distros/O/OpenCA-Crypto/Token/OpenSSL.pm:($OpenCA::Token::OpenSSL::VERSION = '$Revision: 1.6 $' )=~ s/(?:^.*: (\d+))|(?:\s+\$$)/defined $1?"0\.9":""/eg;
distros/O/OpenCA-Crypto/Token/LunaCA3.pm:($OpenCA::Token::OpenSSL::VERSION = '$Revision: 1.3 $' )=~ s/(?:^.*: (\d+))|(?:\s+\$$)/defined $1?"0\.9":""/eg;
distros/S/Stow/lib/Stow.pm.in:our $VERSION = '@VERSION@';
distros/O/OTRS-Kernel-Module-TicketAutoAssignment/bin/otrs.AutoAllocation.pl:$VERSION = qw($Revision: 1.3 $) [1];
distros/O/Oktest/lib/Oktest.pm:our $VERSION   = ('$Release: 0.0103 $' =~ /\d+(\.\d+)*/ && $&);
distros/O/Orac-alpha/Shell/Mark.pm:$VERSION = $VERSION = q{1.1};
distros/O/Orac-alpha/Shell/Format.pm:$VERSION = $VERSION = q{1.0};
distros/O/Orac-alpha/Shell/Properties.pm:$VERSION = $VERSION = q{1.0};
distros/O/Orac-alpha/Shell/File.pm:$VERSION = $VERSION = q{1.0};
distros/O/Orac-alpha/Shell/Do.pm:$VERSION = $VERSION = q{1.0};
distros/O/Orac-alpha/Shell/Meta.pm:$VERSION = $VERSION = q{1.0};
distros/O/Orac-alpha/Shell/Menu.pm:$VERSION = $VERSION = q{1.0};
distros/O/Orac-alpha/DBI/Format.pm:$DBI::Format::VERSION = $DBI::Format::VERSION = substr(q$Revision: 1.1 $, 10)+0;
distros/A/Astro-Corlate/Wrapper/Wrapper.pm:'$Revision: 1.3 $ ' =~ /.*:\s(.*)\s\$/ && ($VERSION = $1);
distros/H/HTTP-DAV/t/TestDetails.pm:$VERSION = sprintf("%d.%02d", q$Revision: 1.4 $ =~ /(\d+)\.(\d+)/);
distros/S/SQL-Shell/bin/sqlsh:$VERSION = ('$Revision: 1.50 $' =~ /([\d\.]+)/)[0];
distros/S/SVN-Mirror/t/test_repo.dump:$VERSION = "$VER_MAJOR.$VER_MINOR.$VER_MICRO";
distros/S/ShipIt/t/version_from_line_perl.t:    [ q{our $VERSION = '0.02';},             q{our $VERSION = '0.02'} ],
distros/S/SPOPSx-Ginsu/t/FixedWing.pm:	$VERSION = sprintf "%d.%03d", q$Revision: 1.12 $ =~ /: (\d+)\.(\d+)/;
distros/S/SPOPSx-Ginsu/t/Seaplane.pm:	$VERSION = sprintf "%d.%03d", q$Revision: 1.14 $ =~ /: (\d+)\.(\d+)/;
distros/S/SPOPSx-Ginsu/t/Vehicle.pm:	$VERSION = sprintf "%d.%03d", q$Revision: 1.12 $ =~ /: (\d+)\.(\d+)/;
distros/S/SPOPSx-Ginsu/t/ClubMembers.pm:	$VERSION = sprintf "%d.%03d", q$Revision: 1.8 $ =~ /: (\d+)\.(\d+)/;
distros/S/SPOPSx-Ginsu/t/MyBaseObject.pm:	$VERSION = sprintf "%d.%03d", q$Revision: 1.2 $ =~ /: (\d+)\.(\d+)/;
distros/S/SPOPSx-Ginsu/t/VehicleImplementation.pm:	$VERSION = sprintf "%d.%03d", q$Revision: 1.5 $ =~ /: (\d+)\.(\d+)/;
distros/S/SPOPSx-Ginsu/t/Club.pm:	$VERSION = sprintf "%d.%03d", q$Revision: 1.14 $ =~ /: (\d+)\.(\d+)/;
distros/S/SPOPSx-Ginsu/t/Slip.pm:	$VERSION = sprintf "%d.%03d", q$Revision: 1.13 $ =~ /: (\d+)\.(\d+)/;
distros/S/SPOPSx-Ginsu/t/Aircraft.pm:	$VERSION = sprintf "%d.%03d", q$Revision: 1.11 $ =~ /: (\d+)\.(\d+)/;
distros/S/SPOPSx-Ginsu/t/Boat.pm:	$VERSION = sprintf "%d.%03d", q$Revision: 1.19 $ =~ /: (\d+)\.(\d+)/;
distros/S/SPOPSx-Ginsu/t/BoatNoSaveAnchor.pm:	$VERSION = sprintf "%d.%03d", q$Revision: 1.1 $ =~ /: (\d+)\.(\d+)/;
distros/S/SPOPSx-Ginsu/t/Helicopter.pm:	$VERSION = sprintf "%d.%03d", q$Revision: 1.12 $ =~ /: (\d+)\.(\d+)/;
distros/S/SPOPSx-Ginsu/t/MyDBI.pm:$VERSION = sprintf "%d.%03d", q$Revision: 1.2 $ =~ /: (\d+)\.(\d+)/;
distros/S/SPOPSx-Ginsu/t/Person.pm:	$VERSION = sprintf "%d.%03d", q$Revision: 1.14 $ =~ /: (\d+)\.(\d+)/;
distros/S/SPOPSx-Ginsu/t/Anchor.pm:	$VERSION = sprintf "%d.%03d", q$Revision: 1.14 $ =~ /: (\d+)\.(\d+)/;
distros/S/SPOPSx-Ginsu/t/Boatyard.pm:	$VERSION = sprintf "%d.%03d", q$Revision: 1.19 $ =~ /: (\d+)\.(\d+)/;
distros/S/SPOPSx-Ginsu/eg/Template.pm:	$VERSION = sprintf "%d.%03d", q$Revision: 1.7 $ =~ /: (\d+)\.(\d+)/;
distros/A/Astro-ADS/Result/Result.pm:'$Revision: 1.26 $ ' =~ /.*:\s(.*)\s\$/ && ($VERSION = $1);
distros/A/Astro-ADS/Query/Query.pm:'$Revision: 1.26 $ ' =~ /.*:\s(.*)\s\$/ && ($VERSION = $1);
distros/H/HTML-Stream/bin/html2perlstream:( $VERSION ) = '$Revision: 1.10 $ ' =~ /\$Revision:\s+([^\s]+)/;
distros/T/Test-WWW-Selenium-Conversion-IDE/t/00-critic.t:our $VERSION = do { my @r = (q$LastChangedRevision: 5780 $ =~ /\d+/mxg); sprintf '%d.'.'%03d' x $#r, @r };
distros/T/Test-WWW-Selenium-Conversion-IDE/t/00-pod.t:our $VERSION = do { my @r = (q$LastChangedRevision: 5780 $ =~ /\d+/mxg); sprintf '%d.'.'%03d' x $#r, @r };
distros/T/Test-WWW-Selenium-Conversion-IDE/t/00-distribution.t:our $VERSION = do { my @r = (q$LastChangedRevision: 5780 $ =~ /\d+/mxg); sprintf '%d.'.'%03d' x $#r, @r };
distros/T/Tk-Multi/Multi/Any.pm:$VERSION = sprintf "%d.%03d", q$Revision: 2.2 $ =~ /(\d+)\.(\d+)/;
[...]
distros/U/UMMF/lib/UMMF/UML_1_5/Behavioral_Elements/Actions/Collection_Actions/Iterate/IterateAction.pm:our $VERSION = do { my @r = (q{1.5} =~ /\d+/g); sprintf "%d." . "%03d" x $#r, @r };
distros/U/UMMF/lib/UMMF/UML_1_5/Behavioral_Elements/Actions/Collection_Actions/Reduce/ReduceAction.pm:our $VERSION = do { my @r = (q{1.5} =~ /\d+/g); sprintf "%d." . "%03d" x $#r, @r };
distros/U/UMMF/lib/UMMF/UML_1_5/Behavioral_Elements/Actions/Collection_Actions/Map/MapAction.pm:our $VERSION = do { my @r = (q{1.5} =~ /\d+/g); sprintf "%d." . "%03d" x $#r, @r };
distros/N/Net-API-Stripe/lib/Net/API/Stripe/Issuing/Dispute/Evidence/Other.pm:    our( $VERSION ) = '0.1';
distros/N/Net-API-Stripe/lib/Net/API/Stripe/Issuing/Card/AuthorizationsControl/SpendingLimit.pm:	our( $VERSION ) = '0.1';
distros/N/Net-API-Stripe/lib/Net/API/Stripe/Issuing/Dispute/Evidence/Fraudulent.pm:    our( $VERSION ) = '0.1';
distros/N/Net-API-Stripe/lib/Net/API/Stripe/Connect/CountrySpec/VerificationFields/Details.pm:    our( $VERSION ) = '0.1';
distros/N/Net-API-Stripe/lib/Net/API/Stripe/Connect/Account/Settings/Dashboard.pm:	our( $VERSION ) = '0.1';
distros/N/Net-API-Stripe/lib/Net/API/Stripe/Connect/Account/Settings/Payouts.pm:	our( $VERSION ) = '0.1';
distros/N/Net-API-Stripe/lib/Net/API/Stripe/Connect/Account/Settings/Payments.pm:	our( $VERSION ) = '0.1';
distros/N/Net-API-Stripe/lib/Net/API/Stripe/Connect/Account/Settings/CardPayments.pm:	our( $VERSION ) = '0.1';
distros/N/Net-DRI/lib/Net/DRI/Protocol/EPP/Extensions/SIDN/Host.pm:our $VERSION=do { my @r=(q$Revision: 1.1 $=~/\d+/g); sprintf("%d".".%02d" x $#r, @r); };
distros/N/Net-DRI/lib/Net/DRI/Protocol/EPP/Extensions/SIDN/Message.pm:our $VERSION=do { my @r=(q$Revision: 1.1 $=~/\d+/g); sprintf("%d".".%02d" x $#r, @r); };
distros/N/Net-DRI/lib/Net/DRI/Protocol/EPP/Extensions/SIDN/Contact.pm:our $VERSION=do { my @r=(q$Revision: 1.1 $=~/\d+/g); sprintf("%d".".%02d" x $#r, @r); };
distros/N/Net-DRI/lib/Net/DRI/Protocol/EPP/Extensions/SIDN/Domain.pm:our $VERSION=do { my @r=(q$Revision: 1.1 $=~/\d+/g); sprintf("%d".".%02d" x $#r, @r); };
distros/N/Net-DRI/lib/Net/DRI/Protocol/EPP/Extensions/SIDN/Notifications.pm:our $VERSION=do { my @r=(q$Revision: 1.2 $=~/\d+/g); sprintf("%d".".%02d" x $#r, @r); };
distros/N/Net-DRI/lib/Net/DRI/Protocol/EPP/Extensions/EURid/Message.pm:our $VERSION=do { my @r=(q$Revision: 1.5 $=~/\d+/g); sprintf("%d".".%02d" x $#r, @r); };
distros/N/Net-DRI/lib/Net/DRI/Protocol/EPP/Extensions/EURid/Registrar.pm:our $VERSION=do { my @r=(q$Revision: 1.1 $=~/\d+/g); sprintf("%d".".%02d" x $#r, @r); };
distros/N/Net-DRI/lib/Net/DRI/Protocol/EPP/Extensions/BR/Contact.pm:our $VERSION=do { my @r=(q$Revision: 1.3 $=~/\d+/g); sprintf("%d".".%02d" x $#r, @r); };
distros/N/Net-DRI/lib/Net/DRI/Protocol/EPP/Extensions/EURid/Sunrise.pm:our $VERSION=do { my @r=(q$Revision: 1.14 $=~/\d+/g); sprintf("%d".".%02d" x $#r, @r); };
distros/N/Net-DRI/lib/Net/DRI/Protocol/EPP/Extensions/BR/Domain.pm:our $VERSION=do { my @r=(q$Revision: 1.1 $=~/\d+/g); sprintf("%d".".%02d" x $#r, @r); };
distros/N/Net-DRI/lib/Net/DRI/Protocol/EPP/Extensions/EURid/Contact.pm:our $VERSION=do { my @r=(q$Revision: 1.5 $=~/\d+/g); sprintf("%d".".%02d" x $#r, @r); };
distros/N/Net-DRI/lib/Net/DRI/Protocol/EPP/Extensions/EURid/Notifications.pm:our $VERSION=do { my @r=(q$Revision: 1.1 $=~/\d+/g); sprintf("%d".".%02d" x $#r, @r); };
distros/N/Net-DRI/lib/Net/DRI/Protocol/EPP/Extensions/AT/Result.pm:our $VERSION=do { my @r=(q$Revision: 1.4 $=~/\d+/g); sprintf("%d".".%02d" x $#r, @r); };
distros/N/Net-DRI/lib/Net/DRI/Protocol/EPP/Extensions/AT/IOptions.pm:our $VERSION=do { my @r=(q$Revision: 1.3 $=~/\d+/g); sprintf("%d".".%02d" x $#r, @r); };
distros/N/Net-DRI/lib/Net/DRI/Protocol/EPP/Extensions/EURid/Domain.pm:our $VERSION=do { my @r=(q$Revision: 1.15 $=~/\d+/g); sprintf("%d".".%02d" x $#r, @r); };
distros/N/Net-DRI/lib/Net/DRI/Protocol/EPP/Extensions/AT/ATResult.pm:our $VERSION=do { my @r=(q$Revision: 1.4 $=~/\d+/g); sprintf("%d".".%02d" x $#r, @r); };
distros/N/Net-DRI/lib/Net/DRI/Protocol/EPP/Extensions/AT/Contact.pm:our $VERSION=do { my @r=(q$Revision: 1.4 $=~/\d+/g); sprintf("%d".".%02d" x $#r, @r); };
distros/N/Net-DRI/lib/Net/DRI/Protocol/EPP/Extensions/AT/Message.pm:our $VERSION=do { my @r=(q$Revision: 1.4 $=~/\d+/g); sprintf("%d".".%02d" x $#r, @r); };
distros/N/Net-DRI/lib/Net/DRI/Protocol/EPP/Extensions/AU/Domain.pm:our $VERSION=do { my @r=(q$Revision: 1.2 $=~/\d+/g); sprintf("%d".".%02d" x $#r, @r); };
distros/N/Net-DRI/lib/Net/DRI/Protocol/EPP/Extensions/AT/Domain.pm:our $VERSION = do { my @r = ( q$Revision: 1.4 $ =~ /\d+/g ); sprintf( "%d" . ".%02d" x $#r, @r ); };
distros/N/Net-DRI/lib/Net/DRI/Protocol/EPP/Extensions/ARNES/Contact.pm:our $VERSION=do { my @r=(q$Revision: 1.1 $=~/\d+/g); sprintf("%d".".%02d" x $#r, @r); };
distros/N/Net-DRI/lib/Net/DRI/Protocol/EPP/Extensions/NAME/EmailFwd.pm:our $VERSION=do { my @r=(q$Revision: 1.3 $=~/\d+/g); sprintf("%d".".%02d" x $#r, @r); };
distros/N/Net-DRI/lib/Net/DRI/Protocol/EPP/Extensions/ARNES/Domain.pm:our $VERSION=do { my @r=(q$Revision: 1.2 $=~/\d+/g); sprintf("%d".".%02d" x $#r, @r); };
distros/N/Net-DRI/lib/Net/DRI/Protocol/EPP/Extensions/LU/Status.pm:our $VERSION=do { my @r=(q$Revision: 1.3 $=~/\d+/g); sprintf("%d".".%02d" x $#r, @r); };
distros/N/Net-DRI/lib/Net/DRI/Protocol/EPP/Extensions/LU/Poll.pm:our $VERSION=do { my @r=(q$Revision: 1.3 $=~/\d+/g); sprintf("%d".".%02d" x $#r, @r); };
distros/N/Net-DRI/lib/Net/DRI/Protocol/EPP/Extensions/LU/Contact.pm:our $VERSION=do { my @r=(q$Revision: 1.3 $=~/\d+/g); sprintf("%d".".%02d" x $#r, @r); };
distros/N/Net-DRI/lib/Net/DRI/Protocol/EPP/Extensions/LU/Domain.pm:our $VERSION=do { my @r=(q$Revision: 1.5 $=~/\d+/g); sprintf("%d".".%02d" x $#r, @r); };
distros/N/Net-DRI/lib/Net/DRI/Protocol/EPP/Extensions/E164Validation/RFC5076.pm:our $VERSION=do { my @r=(q$Revision: 1.2 $=~/\d+/g); sprintf("%d".".%02d" x $#r, @r); };
distros/N/Net-DRI/lib/Net/DRI/Protocol/EPP/Extensions/US/Contact.pm:our $VERSION=do { my @r=(q$Revision: 1.3 $=~/\d+/g); sprintf("%d".".%02d" x $#r, @r); };
distros/N/Net-DRI/lib/Net/DRI/Protocol/EPP/Extensions/COOP/Contact.pm:our $VERSION=do { my @r=(q$Revision: 1.3 $=~/\d+/g); sprintf("%d".".%02d" x $#r, @r); };
distros/N/Net-DRI/lib/Net/DRI/Protocol/EPP/Extensions/DNSBE/Message.pm:our $VERSION=do { my @r=(q$Revision: 1.4 $=~/\d+/g); sprintf("%d".".%02d" x $#r, @r); };
distros/N/Net-DRI/lib/Net/DRI/Protocol/EPP/Extensions/DNSBE/Contact.pm:our $VERSION=do { my @r=(q$Revision: 1.3 $=~/\d+/g); sprintf("%d".".%02d" x $#r, @r); };
distros/N/Net-DRI/lib/Net/DRI/Protocol/EPP/Extensions/PL/Message.pm:our $VERSION=do { my @r=(q$Revision: 1.2 $=~/\d+/g); sprintf("%d".".%02d" x $#r, @r); };
distros/N/Net-DRI/lib/Net/DRI/Protocol/EPP/Extensions/DNSBE/Domain.pm:our $VERSION=do { my @r=(q$Revision: 1.6 $=~/\d+/g); sprintf("%d".".%02d" x $#r, @r); };
distros/N/Net-DRI/lib/Net/DRI/Protocol/EPP/Extensions/ASIA/IPR.pm:our $VERSION=do { my @r=(q$Revision: 1.4 $=~/\d+/g); sprintf("%d".".%02d" x $#r, @r); };
distros/N/Net-DRI/lib/Net/DRI/Protocol/EPP/Extensions/PL/Contact.pm:our $VERSION=do { my @r=(q$Revision: 1.3 $=~/\d+/g); sprintf("%d".".%02d" x $#r, @r); };
distros/N/Net-DRI/lib/Net/DRI/Protocol/EPP/Extensions/ASIA/CED.pm:our $VERSION=do { my @r=(q$Revision: 1.5 $=~/\d+/g); sprintf("%d".".%02d" x $#r, @r); };
distros/N/Net-DRI/lib/Net/DRI/Protocol/EPP/Extensions/SE/Message.pm:our $VERSION=do { my @r=(q$Revision: 1.1 $=~/\d+/g); sprintf("%d".".%02d" x $#r, @r); };
distros/N/Net-DRI/lib/Net/DRI/Protocol/EPP/Extensions/PL/Domain.pm:our $VERSION=do { my @r=(q$Revision: 1.3 $=~/\d+/g); sprintf("%d".".%02d" x $#r, @r); };
distros/N/Net-DRI/lib/Net/DRI/Protocol/EPP/Extensions/VeriSign/IDNLanguage.pm:our $VERSION=do { my @r=(q$Revision: 1.4 $=~/\d+/g); sprintf("%d".".%02d" x $#r, @r); };
distros/N/Net-DRI/lib/Net/DRI/Protocol/EPP/Extensions/SE/Extensions.pm:our $VERSION=do { my @r=(q$Revision: 1.6 $=~/\d+/g); sprintf("%d".".%02d" x $#r, @r); };
distros/N/Net-DRI/lib/Net/DRI/Protocol/EPP/Extensions/VeriSign/Sync.pm:our $VERSION=do { my @r=(q$Revision: 1.4 $=~/\d+/g); sprintf("%d".".%02d" x $#r, @r); };
distros/N/Net-DRI/lib/Net/DRI/Protocol/EPP/Extensions/AERO/Contact.pm:our $VERSION=do { my @r=(q$Revision: 1.5 $=~/\d+/g); sprintf("%d".".%02d" x $#r, @r); };
distros/N/Net-DRI/lib/Net/DRI/Protocol/EPP/Extensions/VeriSign/JobsContact.pm:our $VERSION=do { my @r=(q$Revision: 1.1 $=~/\d+/g); sprintf("%d".".%02d" x $#r, @r); };
distros/N/Net-DRI/lib/Net/DRI/Protocol/EPP/Extensions/AERO/Domain.pm:our $VERSION=do { my @r=(q$Revision: 1.4 $=~/\d+/g); sprintf("%d".".%02d" x $#r, @r); };
distros/N/Net-DRI/lib/Net/DRI/Protocol/EPP/Extensions/VeriSign/PollRGP.pm:our $VERSION=do { my @r=(q$Revision: 1.7 $=~/\d+/g); sprintf("%d".".%02d" x $#r, @r); };
distros/N/Net-DRI/lib/Net/DRI/Protocol/EPP/Extensions/VeriSign/PollLowBalance.pm:our $VERSION=do { my @r=(q$Revision: 1.3 $=~/\d+/g); sprintf("%d".".%02d" x $#r, @r); };
distros/N/Net-DRI/lib/Net/DRI/Protocol/EPP/Extensions/VeriSign/NameStore.pm:our $VERSION=do { my @r=(q$Revision: 1.7 $=~/\d+/g); sprintf("%d".".%02d" x $#r, @r); };
distros/N/Net-DRI/lib/Net/DRI/Protocol/EPP/Extensions/VeriSign/WhoisInfo.pm:our $VERSION=do { my @r=(q$Revision: 1.6 $=~/\d+/g); sprintf("%d".".%02d" x $#r, @r); };
distros/N/Net-DRI/lib/Net/DRI/Protocol/EPP/Extensions/NO/Message.pm:our $VERSION = do { my @r = ( q$Revision: 1.5 $ =~ /\d+/gmx ); sprintf( "%d" . ".%02d" x $#r, @r ); };
distros/N/Net-DRI/lib/Net/DRI/Protocol/EPP/Extensions/NO/Host.pm:our $VERSION = do { my @r = ( q$Revision: 1.3 $ =~ /\d+/gmx ); sprintf( "%d" . ".%02d" x $#r, @r ); };
distros/N/Net-DRI/lib/Net/DRI/Protocol/EPP/Extensions/NO/Result.pm:our $VERSION = do { my @r = ( q$Revision: 1.3 $ =~ /\d+/gxm ); sprintf( "%d" . ".%02d" x $#r, @r ); };
distros/N/Net-DRI/lib/Net/DRI/Protocol/EPP/Extensions/NO/Domain.pm:our $VERSION = do { my @r = ( q$Revision: 1.3 $ =~ /\d+/gmx ); sprintf( "%d" . ".%02d" x $#r, @r ); };
distros/N/Net-DRI/lib/Net/DRI/Protocol/EPP/Extensions/NO/Contact.pm:our $VERSION = do { my @r = ( q$Revision: 1.3 $ =~ /\d+/gmx ); sprintf( "%d" . ".%02d" x $#r, @r ); };
distros/N/Net-DRI/lib/Net/DRI/Protocol/EPP/Extensions/CentralNic/WebForwarding.pm:our $VERSION=do { my @r=(q$Revision: 1.2 $=~/\d+/g); sprintf("%d".".%02d" x $#r, @r); };
distros/N/Net-DRI/lib/Net/DRI/Protocol/EPP/Extensions/CentralNic/Release.pm:our $VERSION=do { my @r=(q$Revision: 1.2 $=~/\d+/g); sprintf("%d".".%02d" x $#r, @r); };
distros/N/Net-DRI/lib/Net/DRI/Protocol/EPP/Extensions/CentralNic/TTL.pm:our $VERSION=do { my @r=(q$Revision: 1.2 $=~/\d+/g); sprintf("%d".".%02d" x $#r, @r); };
distros/N/Net-DRI/lib/Net/DRI/Protocol/EPP/Extensions/IT/Domain.pm:our $VERSION = do { my @r = ( q$Revision: 1.1 $ =~ /\d+/gxm ); sprintf( "%d" . ".%02d" x $#r, @r ); };
distros/N/Net-DRI/lib/Net/DRI/Protocol/EPP/Extensions/IT/Contact.pm:our $VERSION=do { my @r=(q$Revision: 1.1 $=~/\d+/g); sprintf("%d".".%02d" x $#r, @r); };
distros/N/Net-DRI/lib/Net/DRI/Protocol/EPP/Extensions/IT/Notifications.pm:our $VERSION = do { my @r = ( q$Revision: 1.1 $ =~ /\d+/gmx ); sprintf( "%d" . ".%02d" x $#r, @r ); };
distros/N/Net-DRI/lib/Net/DRI/Protocol/EPP/Extensions/AFNIC/Status.pm:our $VERSION=do { my @r=(q$Revision: 1.1 $=~/\d+/g); sprintf("%d".".%02d" x $#r, @r); };
distros/N/Net-DRI/lib/Net/DRI/Protocol/EPP/Extensions/AFNIC/Contact.pm:our $VERSION=do { my @r=(q$Revision: 1.4 $=~/\d+/g); sprintf("%d".".%02d" x $#r, @r); };
distros/N/Net-DRI/lib/Net/DRI/Protocol/EPP/Extensions/NeuLevel/IDNLanguage.pm:our $VERSION=do { my @r=(q$Revision: 1.3 $=~/\d+/g); sprintf("%d".".%02d" x $#r, @r); };
distros/N/Net-DRI/lib/Net/DRI/Protocol/EPP/Extensions/AFNIC/Domain.pm:our $VERSION=do { my @r=(q$Revision: 1.5 $=~/\d+/g); sprintf("%d".".%02d" x $#r, @r); };
distros/N/Net-DRI/lib/Net/DRI/Protocol/EPP/Extensions/AFNIC/Notifications.pm:our $VERSION=do { my @r=(q$Revision: 1.4 $=~/\d+/g); sprintf("%d".".%02d" x $#r, @r); };
distros/N/Net-DRI/lib/Net/DRI/Protocol/EPP/Extensions/NeuLevel/UIN.pm:our $VERSION=do { my @r=(q$Revision: 1.1 $=~/\d+/g); sprintf("%d".".%02d" x $#r, @r); };
distros/N/Net-DRI/lib/Net/DRI/Protocol/EPP/Extensions/FCCN/Domain.pm:our $VERSION=do { my @r=(q$Revision: 1.1 $=~/\d+/g); sprintf("%d".".%02d" x $#r, @r); };
distros/N/Net-DRI/lib/Net/DRI/Protocol/EPP/Extensions/FCCN/Contact.pm:our $VERSION=do { my @r=(q$Revision: 1.2 $=~/\d+/g); sprintf("%d".".%02d" x $#r, @r); };
distros/N/Net-DRI/lib/Net/DRI/Protocol/EPP/Extensions/CZ/NSSET.pm:our $VERSION=do { my @r=(q$Revision: 1.4 $=~/\d+/g); sprintf("%d".".%02d" x $#r, @r); };
distros/N/Net-DRI/lib/Net/DRI/Protocol/EPP/Extensions/CZ/Contact.pm:our $VERSION=do { my @r=(q$Revision: 1.3 $=~/\d+/g); sprintf("%d".".%02d" x $#r, @r); };
distros/N/Net-DRI/lib/Net/DRI/Protocol/EPP/Extensions/MOBI/Domain.pm:our $VERSION=do { my @r=(q$Revision: 1.3 $=~/\d+/g); sprintf("%d".".%02d" x $#r, @r); };
distros/N/Net-DRI/lib/Net/DRI/Protocol/EPP/Extensions/CIRA/Agreement.pm:our $VERSION=do { my @r=(q$Revision: 1.1 $=~/\d+/g); sprintf("%d".".%02d" x $#r, @r); };
distros/N/Net-DRI/lib/Net/DRI/Protocol/EPP/Extensions/CZ/Domain.pm:our $VERSION = do { my @r = ( q$Revision: 1.4 $ =~ /\d+/g ); sprintf( "%d" . ".%02d" x $#r, @r ); };
distros/N/Net-DRI/lib/Net/DRI/Protocol/EPP/Extensions/CIRA/Notifications.pm:our $VERSION=do { my @r=(q$Revision: 1.1 $=~/\d+/g); sprintf("%d".".%02d" x $#r, @r); };
distros/N/Net-DRI/lib/Net/DRI/Protocol/EPP/Extensions/CIRA/Domain.pm:our $VERSION=do { my @r=(q$Revision: 1.1 $=~/\d+/g); sprintf("%d".".%02d" x $#r, @r); };
distros/N/Net-DRI/lib/Net/DRI/Protocol/EPP/Extensions/CIRA/Contact.pm:our $VERSION=do { my @r=(q$Revision: 1.1 $=~/\d+/g); sprintf("%d".".%02d" x $#r, @r); };
distros/N/Net-DRI/lib/Net/DRI/Protocol/EPP/Extensions/CAT/Contact.pm:our $VERSION=do { my @r=(q$Revision: 1.2 $=~/\d+/g); sprintf("%d".".%02d" x $#r, @r); };
distros/N/Net-DRI/lib/Net/DRI/Protocol/EPP/Extensions/CAT/DefensiveRegistration.pm:our $VERSION=do { my @r=(q$Revision: 1.10 $=~/\d+/g); sprintf("%d".".%02d" x $#r, @r); };
distros/N/Net-DRI/lib/Net/DRI/Protocol/EPP/Extensions/CAT/Domain.pm:our $VERSION=do { my @r=(q$Revision: 1.6 $=~/\d+/g); sprintf("%d".".%02d" x $#r, @r); };
distros/N/Net-DRI/lib/Net/DRI/Protocol/EPP/Extensions/Nominet/Host.pm:our $VERSION=do { my @r=(q$Revision: 1.5 $=~/\d+/g); sprintf("%d".".%02d" x $#r, @r); };
distros/N/Net-DRI/lib/Net/DRI/Protocol/EPP/Extensions/Nominet/Contact.pm:our $VERSION=do { my @r=(q$Revision: 1.6 $=~/\d+/g); sprintf("%d".".%02d" x $#r, @r); };
distros/N/Net-DRI/lib/Net/DRI/Protocol/EPP/Extensions/Afilias/IDNLanguage.pm:our $VERSION=do { my @r=(q$Revision: 1.2 $=~/\d+/g); sprintf("%d".".%02d" x $#r, @r); };
distros/N/Net-DRI/lib/Net/DRI/Protocol/EPP/Extensions/Nominet/Notifications.pm:our $VERSION=do { my @r=(q$Revision: 1.3 $=~/\d+/g); sprintf("%d".".%02d" x $#r, @r); };
distros/N/Net-DRI/lib/Net/DRI/Protocol/EPP/Extensions/Nominet/Domain.pm:our $VERSION=do { my @r=(q$Revision: 1.7 $=~/\d+/g); sprintf("%d".".%02d" x $#r, @r); };
distros/N/Net-DRI/lib/Net/DRI/Protocol/EPP/Extensions/Afilias/Restore.pm:our $VERSION=do { my @r=(q$Revision: 1.2 $=~/\d+/g); sprintf("%d".".%02d" x $#r, @r); };
distros/N/Net-DRI/lib/Net/DRI/Protocol/EPP/Extensions/Nominet/Account.pm:our $VERSION=do { my @r=(q$Revision: 1.6 $=~/\d+/g); sprintf("%d".".%02d" x $#r, @r); };
distros/N/Net-DRI/lib/Net/DRI/Protocol/EPP/Extensions/PRO/Domain.pm:our $VERSION=do { my @r = (q$Revision: 1.1 $ =~ /\d+/g); sprintf("%d".".%02d" x $#r, @r); };
distros/N/Net-DRI/lib/Net/DRI/Protocol/EPP/Extensions/PRO/AV.pm:our $VERSION=do { my @r = (q$Revision: 1.2 $ =~ /\d+/g); sprintf("%d".".%02d" x $#r, @r); };
distros/W/WSST/lib/WSST/Templates/perl/lib/WebService/{company_name}/{service_name}/Base.pm.tmpl:$VERSION = '[% version %]';
distros/W/WSST/lib/WSST/Templates/perl/lib/WebService/{company_name}/{service_name}/{method.class_name}.pm.tmpl:$VERSION = '[% version %]';
distros/P/PDF-API3/lib/PDF/API3/Compat/API2/Resource/CIDFont/TrueType/FontFile.pm:    ( $VERSION ) = sprintf '%i.%03i', split(/\./,('$Revision: 2.6 $' =~ /Revision: (\S+)\s/)[0]); # $Date: 2008/01/04 08:08:39 $
distros/P/PDF-API3/lib/PDF/API3/Compat/API2/Resource/ColorSpace/Indexed/ACTFile.pm:    ( $VERSION ) = sprintf '%i.%03i', split(/\./,('$Revision: 2.0 $' =~ /Revision: (\S+)\s/)[0]); # $Date: 2005/11/16 02:18:14 $
distros/P/PDF-API3/lib/PDF/API3/Compat/API2/Resource/ColorSpace/Indexed/WebColor.pm:    ( $VERSION ) = sprintf '%i.%03i', split(/\./,('$Revision: 2.0 $' =~ /Revision: (\S+)\s/)[0]); # $Date: 2005/11/16 02:18:14 $
distros/P/PDF-API3/lib/PDF/API3/Compat/API2/Resource/ColorSpace/Indexed/Hue.pm:    ( $VERSION ) = sprintf '%i.%03i', split(/\./,('$Revision: 2.0 $' =~ /Revision: (\S+)\s/)[0]); # $Date: 2005/11/16 02:18:14 $
distros/P/PDF-API3/lib/PDF/API3/Compat/API2/Resource/XObject/Form/Hybrid.pm:    ( $VERSION ) = sprintf '%i.%03i', split(/\./,('$Revision: 2.1 $' =~ /Revision: (\S+)\s/)[0]); # $Date: 2007/05/08 18:32:10 $
distros/P/PDF-API3/lib/PDF/API3/Compat/API2/Resource/XObject/Form/BarCode.pm:    ( $VERSION ) = sprintf '%i.%03i', split(/\./,('$Revision: 2.0 $' =~ /Revision: (\S+)\s/)[0]); # $Date: 2005/11/16 02:18:23 $
distros/P/PDF-API3/lib/PDF/API3/Compat/API2/Resource/XObject/Image/PNG.pm:    ( $VERSION ) = sprintf '%i.%03i', split(/\./,('$Revision: 2.0 $' =~ /Revision: (\S+)\s/)[0]); # $Date: 2005/11/16 02:18:23 $
distros/P/PDF-API3/lib/PDF/API3/Compat/API2/Resource/XObject/Image/PNM.pm:    ( $VERSION ) = sprintf '%i.%03i', split(/\./,('$Revision: 2.1 $' =~ /Revision: (\S+)\s/)[0]); # $Date: 2007/05/24 19:29:46 $
distros/P/PDF-API3/lib/PDF/API3/Compat/API2/Resource/XObject/Image/TIFF.pm:    ( $VERSION ) = sprintf '%i.%03i', split(/\./,('$Revision: 2.3 $' =~ /Revision: (\S+)\s/)[0]); # $Date: 2007/09/17 16:03:07 $
distros/P/PDF-API3/lib/PDF/API3/Compat/API2/Resource/XObject/Image/GD.pm:    ( $VERSION ) = sprintf '%i.%03i', split(/\./,('$Revision: 2.0 $' =~ /Revision: (\S+)\s/)[0]); # $Date: 2005/11/16 02:18:23 $
distros/P/PDF-API3/lib/PDF/API3/Compat/API2/Resource/XObject/Image/GIF.pm:    ( $VERSION ) = sprintf '%i.%03i', split(/\./,('$Revision: 2.0 $' =~ /Revision: (\S+)\s/)[0]); # $Date: 2005/11/16 02:18:23 $
distros/P/PDF-API3/lib/PDF/API3/Compat/API2/Resource/XObject/Image/JPEG.pm:    ( $VERSION ) = sprintf '%i.%03i', split(/\./,('$Revision: 2.1 $' =~ /Revision: (\S+)\s/)[0]); # $Date: 2007/03/17 20:38:51 $
distros/P/PDF-API3/lib/PDF/API3/Compat/API2/Resource/XObject/Form/BarCode/code3of9.pm:    ( $VERSION ) = sprintf '%i.%03i', split(/\./,('$Revision: 2.0 $' =~ /Revision: (\S+)\s/)[0]); # $Date: 2005/11/16 02:18:23 $
distros/P/PDF-API3/lib/PDF/API3/Compat/API2/Resource/XObject/Form/BarCode/int2of5.pm:    ( $VERSION ) = sprintf '%i.%03i', split(/\./,('$Revision: 2.0 $' =~ /Revision: (\S+)\s/)[0]); # $Date: 2005/11/16 02:18:23 $
distros/P/PDF-API3/lib/PDF/API3/Compat/API2/Resource/XObject/Form/BarCode/codabar.pm:    ( $VERSION ) = sprintf '%i.%03i', split(/\./,('$Revision: 2.0 $' =~ /Revision: (\S+)\s/)[0]); # $Date: 2005/11/16 02:18:23 $
distros/P/PDF-API3/lib/PDF/API3/Compat/API2/Resource/XObject/Form/BarCode/ean13.pm:    ( $VERSION ) = sprintf '%i.%03i', split(/\./,('$Revision: 2.0 $' =~ /Revision: (\S+)\s/)[0]); # $Date: 2005/11/16 02:18:23 $
distros/P/PDF-API3/lib/PDF/API3/Compat/API2/Resource/XObject/Form/BarCode/code128.pm:    ( $VERSION ) = sprintf '%i.%03i', split(/\./,('$Revision: 2.0 $' =~ /Revision: (\S+)\s/)[0]); # $Date: 2005/11/16 02:18:23 $
distros/C/CPAN-Mini-Webserver-PSGI/t/mini/authors/id/A/AN/ANDK/CPAN-Test-Dummy-Perl5-Make/lib/Bundle/CpanTestDummies.pm:$Bundle::CpanTestDummies::VERSION = 1.6 + sprintf "%.6f", substr(q$Rev$,4)/1000000;
distros/C/CPAN-Mini-Webserver/corpus/mini/authors/id/A/AN/ANDK/CPAN-Test-Dummy-Perl5-Make/lib/Bundle/CpanTestDummies.pm:$Bundle::CpanTestDummies::VERSION = 1.6 + sprintf "%.6f", substr(q$Rev$,4)/1000000;
